<NUMBER OF ZONES> 26
<NUMBER OF NODES> 480
<FIRST THRU NODE> 1
<NUMBER OF LINKS> 1444
<ORIGINAL HEADER> 
<END OF METADATA>


~	init_node	term_node	capacity	free_flow_time	original_link	time	;
	1	26	259.00200639999997	6	0	0	;
	1	38	234.0347319	4	1	0	;
	2	25	259.00200639999997	6	2	0	;
	2	39	49.58180928	5	3	0	;
	3	28	177.82794099999998	2	4	0	;
	3	38	171.1052372	4	5	0	;
	3	30	49.0882673	6	6	0	;
	4	27	177.82794099999998	2	7	0	;
	4	39	49.47995469000001	4	8	0	;
	4	42	100.0	5	9	0	;
	5	30	100.0	5	10	0	;
	5	45	49.93510694	8	11	0	;
	5	44	48.54917717000001	4	12	0	;
	5	33	135.12001550000002	6	13	0	;
	5	42	139.1578842	3	14	0	;
	6	32	48.76508287	4	15	0	;
	6	29	100.0	5	16	0	;
	6	27	49.0882673	6	17	0	;
	6	43	49.0882673	6	18	0	;
	7	37	50.91256152	4	19	0	;
	7	43	259.00200639999997	3	20	0	;
	8	48	49.247906050000005	4	21	0	;
	8	33	51.27526119	5	22	0	;
	8	30	48.76508287	4	23	0	;
	9	47	95.99180565	3	24	0	;
	9	34	145.6475315	3	25	0	;
	9	32	51.27526119	5	26	0	;
	9	29	135.12001550000002	6	27	0	;
	10	33	145.6475315	3	28	0	;
	10	35	50.026075629999994	4	29	0	;
	10	45	48.239508310000005	2	30	0	;
	11	46	234.0347319	4	31	0	;
	11	34	50.026075629999994	4	32	0	;
	11	36	50.599123399999996	6	33	0	;
	11	47	50.75697193	5	34	0	;
	12	35	50.599123399999996	6	35	0	;
	12	47	52.299100630000005	2	36	0	;
	12	37	48.85357564	3	37	0	;
	13	36	48.85357564	3	38	0	;
	13	31	50.91256152	4	39	0	;
	13	48	50.78508436	2	40	0	;
	14	43	234.0347319	4	41	0	;
	14	25	234.0347319	4	42	0	;
	14	27	171.1052372	4	43	0	;
	15	26	49.58180928	5	44	0	;
	15	28	49.47995469000001	4	45	0	;
	15	41	48.98587646	2	46	0	;
	16	41	78.4181131	3	47	0	;
	16	46	234.0347319	2	48	0	;
	17	44	50.45822583	5	49	0	;
	17	39	48.98587646	2	50	0	;
	17	40	78.4181131	3	51	0	;
	17	42	50.50193156	10	52	0	;
	18	28	100.0	5	53	0	;
	18	41	50.50193156	10	54	0	;
	18	29	139.1578842	3	55	0	;
	19	38	234.0347319	4	56	0	;
	19	30	49.0882673	6	57	0	;
	19	31	259.00200639999997	3	58	0	;
	20	46	196.79896710000003	3	59	0	;
	20	45	52.299100630000005	2	60	0	;
	20	29	48.54917717000001	4	61	0	;
	20	41	50.45822583	5	62	0	;
	21	34	48.239508310000005	2	63	0	;
	21	44	52.299100630000005	2	64	0	;
	21	29	49.93510694	8	65	0	;
	22	35	234.0347319	4	66	0	;
	22	44	196.79896710000003	3	67	0	;
	22	40	234.0347319	2	68	0	;
	23	33	95.99180565	3	69	0	;
	23	35	50.75697193	5	70	0	;
	23	36	52.299100630000005	2	71	0	;
	23	48	50.0	4	72	0	;
	24	32	49.247906050000005	4	73	0	;
	24	47	50.0	4	74	0	;
	24	37	50.78508436	2	75	0	;
	25	50	259.00200639999997	6	0	1	;
	25	62	234.0347319	4	1	1	;
	26	49	259.00200639999997	6	2	1	;
	26	63	49.58180928	5	3	1	;
	27	52	177.82794099999998	2	4	1	;
	27	62	171.1052372	4	5	1	;
	27	54	49.0882673	6	6	1	;
	28	51	177.82794099999998	2	7	1	;
	28	63	49.47995469000001	4	8	1	;
	28	66	100.0	5	9	1	;
	29	54	100.0	5	10	1	;
	29	69	49.93510694	8	11	1	;
	29	68	48.54917717000001	4	12	1	;
	29	57	135.12001550000002	6	13	1	;
	29	66	139.1578842	3	14	1	;
	30	56	48.76508287	4	15	1	;
	30	53	100.0	5	16	1	;
	30	51	49.0882673	6	17	1	;
	30	67	49.0882673	6	18	1	;
	31	61	50.91256152	4	19	1	;
	31	67	259.00200639999997	3	20	1	;
	32	72	49.247906050000005	4	21	1	;
	32	57	51.27526119	5	22	1	;
	32	54	48.76508287	4	23	1	;
	33	71	95.99180565	3	24	1	;
	33	58	145.6475315	3	25	1	;
	33	56	51.27526119	5	26	1	;
	33	53	135.12001550000002	6	27	1	;
	34	57	145.6475315	3	28	1	;
	34	59	50.026075629999994	4	29	1	;
	34	69	48.239508310000005	2	30	1	;
	35	70	234.0347319	4	31	1	;
	35	58	50.026075629999994	4	32	1	;
	35	60	50.599123399999996	6	33	1	;
	35	71	50.75697193	5	34	1	;
	36	59	50.599123399999996	6	35	1	;
	36	71	52.299100630000005	2	36	1	;
	36	61	48.85357564	3	37	1	;
	37	60	48.85357564	3	38	1	;
	37	55	50.91256152	4	39	1	;
	37	72	50.78508436	2	40	1	;
	38	67	234.0347319	4	41	1	;
	38	49	234.0347319	4	42	1	;
	38	51	171.1052372	4	43	1	;
	39	50	49.58180928	5	44	1	;
	39	52	49.47995469000001	4	45	1	;
	39	65	48.98587646	2	46	1	;
	40	65	78.4181131	3	47	1	;
	40	70	234.0347319	2	48	1	;
	41	68	50.45822583	5	49	1	;
	41	63	48.98587646	2	50	1	;
	41	64	78.4181131	3	51	1	;
	41	66	50.50193156	10	52	1	;
	42	52	100.0	5	53	1	;
	42	65	50.50193156	10	54	1	;
	42	53	139.1578842	3	55	1	;
	43	62	234.0347319	4	56	1	;
	43	54	49.0882673	6	57	1	;
	43	55	259.00200639999997	3	58	1	;
	44	70	196.79896710000003	3	59	1	;
	44	69	52.299100630000005	2	60	1	;
	44	53	48.54917717000001	4	61	1	;
	44	65	50.45822583	5	62	1	;
	45	58	48.239508310000005	2	63	1	;
	45	68	52.299100630000005	2	64	1	;
	45	53	49.93510694	8	65	1	;
	46	59	234.0347319	4	66	1	;
	46	68	196.79896710000003	3	67	1	;
	46	64	234.0347319	2	68	1	;
	47	57	95.99180565	3	69	1	;
	47	59	50.75697193	5	70	1	;
	47	60	52.299100630000005	2	71	1	;
	47	72	50.0	4	72	1	;
	48	56	49.247906050000005	4	73	1	;
	48	71	50.0	4	74	1	;
	48	61	50.78508436	2	75	1	;
	49	74	259.00200639999997	6	0	2	;
	49	86	234.0347319	4	1	2	;
	50	73	259.00200639999997	6	2	2	;
	50	87	49.58180928	5	3	2	;
	51	76	177.82794099999998	2	4	2	;
	51	86	171.1052372	4	5	2	;
	51	78	49.0882673	6	6	2	;
	52	75	177.82794099999998	2	7	2	;
	52	87	49.47995469000001	4	8	2	;
	52	90	100.0	5	9	2	;
	53	78	100.0	5	10	2	;
	53	93	49.93510694	8	11	2	;
	53	92	48.54917717000001	4	12	2	;
	53	81	135.12001550000002	6	13	2	;
	53	90	139.1578842	3	14	2	;
	54	80	48.76508287	4	15	2	;
	54	77	100.0	5	16	2	;
	54	75	49.0882673	6	17	2	;
	54	91	49.0882673	6	18	2	;
	55	85	50.91256152	4	19	2	;
	55	91	259.00200639999997	3	20	2	;
	56	96	49.247906050000005	4	21	2	;
	56	81	51.27526119	5	22	2	;
	56	78	48.76508287	4	23	2	;
	57	95	95.99180565	3	24	2	;
	57	82	145.6475315	3	25	2	;
	57	80	51.27526119	5	26	2	;
	57	77	135.12001550000002	6	27	2	;
	58	81	145.6475315	3	28	2	;
	58	83	50.026075629999994	4	29	2	;
	58	93	48.239508310000005	2	30	2	;
	59	94	234.0347319	4	31	2	;
	59	82	50.026075629999994	4	32	2	;
	59	84	50.599123399999996	6	33	2	;
	59	95	50.75697193	5	34	2	;
	60	83	50.599123399999996	6	35	2	;
	60	95	52.299100630000005	2	36	2	;
	60	85	48.85357564	3	37	2	;
	61	84	48.85357564	3	38	2	;
	61	79	50.91256152	4	39	2	;
	61	96	50.78508436	2	40	2	;
	62	91	234.0347319	4	41	2	;
	62	73	234.0347319	4	42	2	;
	62	75	171.1052372	4	43	2	;
	63	74	49.58180928	5	44	2	;
	63	76	49.47995469000001	4	45	2	;
	63	89	48.98587646	2	46	2	;
	64	89	78.4181131	3	47	2	;
	64	94	234.0347319	2	48	2	;
	65	92	50.45822583	5	49	2	;
	65	87	48.98587646	2	50	2	;
	65	88	78.4181131	3	51	2	;
	65	90	50.50193156	10	52	2	;
	66	76	100.0	5	53	2	;
	66	89	50.50193156	10	54	2	;
	66	77	139.1578842	3	55	2	;
	67	86	234.0347319	4	56	2	;
	67	78	49.0882673	6	57	2	;
	67	79	259.00200639999997	3	58	2	;
	68	94	196.79896710000003	3	59	2	;
	68	93	52.299100630000005	2	60	2	;
	68	77	48.54917717000001	4	61	2	;
	68	89	50.45822583	5	62	2	;
	69	82	48.239508310000005	2	63	2	;
	69	92	52.299100630000005	2	64	2	;
	69	77	49.93510694	8	65	2	;
	70	83	234.0347319	4	66	2	;
	70	92	196.79896710000003	3	67	2	;
	70	88	234.0347319	2	68	2	;
	71	81	95.99180565	3	69	2	;
	71	83	50.75697193	5	70	2	;
	71	84	52.299100630000005	2	71	2	;
	71	96	50.0	4	72	2	;
	72	80	49.247906050000005	4	73	2	;
	72	95	50.0	4	74	2	;
	72	85	50.78508436	2	75	2	;
	73	98	259.00200639999997	6	0	3	;
	73	110	234.0347319	4	1	3	;
	74	97	259.00200639999997	6	2	3	;
	74	111	49.58180928	5	3	3	;
	75	100	177.82794099999998	2	4	3	;
	75	110	171.1052372	4	5	3	;
	75	102	49.0882673	6	6	3	;
	76	99	177.82794099999998	2	7	3	;
	76	111	49.47995469000001	4	8	3	;
	76	114	100.0	5	9	3	;
	77	102	100.0	5	10	3	;
	77	117	49.93510694	8	11	3	;
	77	116	48.54917717000001	4	12	3	;
	77	105	135.12001550000002	6	13	3	;
	77	114	139.1578842	3	14	3	;
	78	104	48.76508287	4	15	3	;
	78	101	100.0	5	16	3	;
	78	99	49.0882673	6	17	3	;
	78	115	49.0882673	6	18	3	;
	79	109	50.91256152	4	19	3	;
	79	115	259.00200639999997	3	20	3	;
	80	120	49.247906050000005	4	21	3	;
	80	105	51.27526119	5	22	3	;
	80	102	48.76508287	4	23	3	;
	81	119	95.99180565	3	24	3	;
	81	106	145.6475315	3	25	3	;
	81	104	51.27526119	5	26	3	;
	81	101	135.12001550000002	6	27	3	;
	82	105	145.6475315	3	28	3	;
	82	107	50.026075629999994	4	29	3	;
	82	117	48.239508310000005	2	30	3	;
	83	118	234.0347319	4	31	3	;
	83	106	50.026075629999994	4	32	3	;
	83	108	50.599123399999996	6	33	3	;
	83	119	50.75697193	5	34	3	;
	84	107	50.599123399999996	6	35	3	;
	84	119	52.299100630000005	2	36	3	;
	84	109	48.85357564	3	37	3	;
	85	108	48.85357564	3	38	3	;
	85	103	50.91256152	4	39	3	;
	85	120	50.78508436	2	40	3	;
	86	115	234.0347319	4	41	3	;
	86	97	234.0347319	4	42	3	;
	86	99	171.1052372	4	43	3	;
	87	98	49.58180928	5	44	3	;
	87	100	49.47995469000001	4	45	3	;
	87	113	48.98587646	2	46	3	;
	88	113	78.4181131	3	47	3	;
	88	118	234.0347319	2	48	3	;
	89	116	50.45822583	5	49	3	;
	89	111	48.98587646	2	50	3	;
	89	112	78.4181131	3	51	3	;
	89	114	50.50193156	10	52	3	;
	90	100	100.0	5	53	3	;
	90	113	50.50193156	10	54	3	;
	90	101	139.1578842	3	55	3	;
	91	110	234.0347319	4	56	3	;
	91	102	49.0882673	6	57	3	;
	91	103	259.00200639999997	3	58	3	;
	92	118	196.79896710000003	3	59	3	;
	92	117	52.299100630000005	2	60	3	;
	92	101	48.54917717000001	4	61	3	;
	92	113	50.45822583	5	62	3	;
	93	106	48.239508310000005	2	63	3	;
	93	116	52.299100630000005	2	64	3	;
	93	101	49.93510694	8	65	3	;
	94	107	234.0347319	4	66	3	;
	94	116	196.79896710000003	3	67	3	;
	94	112	234.0347319	2	68	3	;
	95	105	95.99180565	3	69	3	;
	95	107	50.75697193	5	70	3	;
	95	108	52.299100630000005	2	71	3	;
	95	120	50.0	4	72	3	;
	96	104	49.247906050000005	4	73	3	;
	96	119	50.0	4	74	3	;
	96	109	50.78508436	2	75	3	;
	97	122	259.00200639999997	6	0	4	;
	97	134	234.0347319	4	1	4	;
	98	121	259.00200639999997	6	2	4	;
	98	135	49.58180928	5	3	4	;
	99	124	177.82794099999998	2	4	4	;
	99	134	171.1052372	4	5	4	;
	99	126	49.0882673	6	6	4	;
	100	123	177.82794099999998	2	7	4	;
	100	135	49.47995469000001	4	8	4	;
	100	138	100.0	5	9	4	;
	101	126	100.0	5	10	4	;
	101	141	49.93510694	8	11	4	;
	101	140	48.54917717000001	4	12	4	;
	101	129	135.12001550000002	6	13	4	;
	101	138	139.1578842	3	14	4	;
	102	128	48.76508287	4	15	4	;
	102	125	100.0	5	16	4	;
	102	123	49.0882673	6	17	4	;
	102	139	49.0882673	6	18	4	;
	103	133	50.91256152	4	19	4	;
	103	139	259.00200639999997	3	20	4	;
	104	144	49.247906050000005	4	21	4	;
	104	129	51.27526119	5	22	4	;
	104	126	48.76508287	4	23	4	;
	105	143	95.99180565	3	24	4	;
	105	130	145.6475315	3	25	4	;
	105	128	51.27526119	5	26	4	;
	105	125	135.12001550000002	6	27	4	;
	106	129	145.6475315	3	28	4	;
	106	131	50.026075629999994	4	29	4	;
	106	141	48.239508310000005	2	30	4	;
	107	142	234.0347319	4	31	4	;
	107	130	50.026075629999994	4	32	4	;
	107	132	50.599123399999996	6	33	4	;
	107	143	50.75697193	5	34	4	;
	108	131	50.599123399999996	6	35	4	;
	108	143	52.299100630000005	2	36	4	;
	108	133	48.85357564	3	37	4	;
	109	132	48.85357564	3	38	4	;
	109	127	50.91256152	4	39	4	;
	109	144	50.78508436	2	40	4	;
	110	139	234.0347319	4	41	4	;
	110	121	234.0347319	4	42	4	;
	110	123	171.1052372	4	43	4	;
	111	122	49.58180928	5	44	4	;
	111	124	49.47995469000001	4	45	4	;
	111	137	48.98587646	2	46	4	;
	112	137	78.4181131	3	47	4	;
	112	142	234.0347319	2	48	4	;
	113	140	50.45822583	5	49	4	;
	113	135	48.98587646	2	50	4	;
	113	136	78.4181131	3	51	4	;
	113	138	50.50193156	10	52	4	;
	114	124	100.0	5	53	4	;
	114	137	50.50193156	10	54	4	;
	114	125	139.1578842	3	55	4	;
	115	134	234.0347319	4	56	4	;
	115	126	49.0882673	6	57	4	;
	115	127	259.00200639999997	3	58	4	;
	116	142	196.79896710000003	3	59	4	;
	116	141	52.299100630000005	2	60	4	;
	116	125	48.54917717000001	4	61	4	;
	116	137	50.45822583	5	62	4	;
	117	130	48.239508310000005	2	63	4	;
	117	140	52.299100630000005	2	64	4	;
	117	125	49.93510694	8	65	4	;
	118	131	234.0347319	4	66	4	;
	118	140	196.79896710000003	3	67	4	;
	118	136	234.0347319	2	68	4	;
	119	129	95.99180565	3	69	4	;
	119	131	50.75697193	5	70	4	;
	119	132	52.299100630000005	2	71	4	;
	119	144	50.0	4	72	4	;
	120	128	49.247906050000005	4	73	4	;
	120	143	50.0	4	74	4	;
	120	133	50.78508436	2	75	4	;
	121	146	259.00200639999997	6	0	5	;
	121	158	234.0347319	4	1	5	;
	122	145	259.00200639999997	6	2	5	;
	122	159	49.58180928	5	3	5	;
	123	148	177.82794099999998	2	4	5	;
	123	158	171.1052372	4	5	5	;
	123	150	49.0882673	6	6	5	;
	124	147	177.82794099999998	2	7	5	;
	124	159	49.47995469000001	4	8	5	;
	124	162	100.0	5	9	5	;
	125	150	100.0	5	10	5	;
	125	165	49.93510694	8	11	5	;
	125	164	48.54917717000001	4	12	5	;
	125	153	135.12001550000002	6	13	5	;
	125	162	139.1578842	3	14	5	;
	126	152	48.76508287	4	15	5	;
	126	149	100.0	5	16	5	;
	126	147	49.0882673	6	17	5	;
	126	163	49.0882673	6	18	5	;
	127	157	50.91256152	4	19	5	;
	127	163	259.00200639999997	3	20	5	;
	128	168	49.247906050000005	4	21	5	;
	128	153	51.27526119	5	22	5	;
	128	150	48.76508287	4	23	5	;
	129	167	95.99180565	3	24	5	;
	129	154	145.6475315	3	25	5	;
	129	152	51.27526119	5	26	5	;
	129	149	135.12001550000002	6	27	5	;
	130	153	145.6475315	3	28	5	;
	130	155	50.026075629999994	4	29	5	;
	130	165	48.239508310000005	2	30	5	;
	131	166	234.0347319	4	31	5	;
	131	154	50.026075629999994	4	32	5	;
	131	156	50.599123399999996	6	33	5	;
	131	167	50.75697193	5	34	5	;
	132	155	50.599123399999996	6	35	5	;
	132	167	52.299100630000005	2	36	5	;
	132	157	48.85357564	3	37	5	;
	133	156	48.85357564	3	38	5	;
	133	151	50.91256152	4	39	5	;
	133	168	50.78508436	2	40	5	;
	134	163	234.0347319	4	41	5	;
	134	145	234.0347319	4	42	5	;
	134	147	171.1052372	4	43	5	;
	135	146	49.58180928	5	44	5	;
	135	148	49.47995469000001	4	45	5	;
	135	161	48.98587646	2	46	5	;
	136	161	78.4181131	3	47	5	;
	136	166	234.0347319	2	48	5	;
	137	164	50.45822583	5	49	5	;
	137	159	48.98587646	2	50	5	;
	137	160	78.4181131	3	51	5	;
	137	162	50.50193156	10	52	5	;
	138	148	100.0	5	53	5	;
	138	161	50.50193156	10	54	5	;
	138	149	139.1578842	3	55	5	;
	139	158	234.0347319	4	56	5	;
	139	150	49.0882673	6	57	5	;
	139	151	259.00200639999997	3	58	5	;
	140	166	196.79896710000003	3	59	5	;
	140	165	52.299100630000005	2	60	5	;
	140	149	48.54917717000001	4	61	5	;
	140	161	50.45822583	5	62	5	;
	141	154	48.239508310000005	2	63	5	;
	141	164	52.299100630000005	2	64	5	;
	141	149	49.93510694	8	65	5	;
	142	155	234.0347319	4	66	5	;
	142	164	196.79896710000003	3	67	5	;
	142	160	234.0347319	2	68	5	;
	143	153	95.99180565	3	69	5	;
	143	155	50.75697193	5	70	5	;
	143	156	52.299100630000005	2	71	5	;
	143	168	50.0	4	72	5	;
	144	152	49.247906050000005	4	73	5	;
	144	167	50.0	4	74	5	;
	144	157	50.78508436	2	75	5	;
	145	170	259.00200639999997	6	0	6	;
	145	182	234.0347319	4	1	6	;
	146	169	259.00200639999997	6	2	6	;
	146	183	49.58180928	5	3	6	;
	147	172	177.82794099999998	2	4	6	;
	147	182	171.1052372	4	5	6	;
	147	174	49.0882673	6	6	6	;
	148	171	177.82794099999998	2	7	6	;
	148	183	49.47995469000001	4	8	6	;
	148	186	100.0	5	9	6	;
	149	174	100.0	5	10	6	;
	149	189	49.93510694	8	11	6	;
	149	188	48.54917717000001	4	12	6	;
	149	177	135.12001550000002	6	13	6	;
	149	186	139.1578842	3	14	6	;
	150	176	48.76508287	4	15	6	;
	150	173	100.0	5	16	6	;
	150	171	49.0882673	6	17	6	;
	150	187	49.0882673	6	18	6	;
	151	181	50.91256152	4	19	6	;
	151	187	259.00200639999997	3	20	6	;
	152	192	49.247906050000005	4	21	6	;
	152	177	51.27526119	5	22	6	;
	152	174	48.76508287	4	23	6	;
	153	191	95.99180565	3	24	6	;
	153	178	145.6475315	3	25	6	;
	153	176	51.27526119	5	26	6	;
	153	173	135.12001550000002	6	27	6	;
	154	177	145.6475315	3	28	6	;
	154	179	50.026075629999994	4	29	6	;
	154	189	48.239508310000005	2	30	6	;
	155	190	234.0347319	4	31	6	;
	155	178	50.026075629999994	4	32	6	;
	155	180	50.599123399999996	6	33	6	;
	155	191	50.75697193	5	34	6	;
	156	179	50.599123399999996	6	35	6	;
	156	191	52.299100630000005	2	36	6	;
	156	181	48.85357564	3	37	6	;
	157	180	48.85357564	3	38	6	;
	157	175	50.91256152	4	39	6	;
	157	192	50.78508436	2	40	6	;
	158	187	234.0347319	4	41	6	;
	158	169	234.0347319	4	42	6	;
	158	171	171.1052372	4	43	6	;
	159	170	49.58180928	5	44	6	;
	159	172	49.47995469000001	4	45	6	;
	159	185	48.98587646	2	46	6	;
	160	185	78.4181131	3	47	6	;
	160	190	234.0347319	2	48	6	;
	161	188	50.45822583	5	49	6	;
	161	183	48.98587646	2	50	6	;
	161	184	78.4181131	3	51	6	;
	161	186	50.50193156	10	52	6	;
	162	172	100.0	5	53	6	;
	162	185	50.50193156	10	54	6	;
	162	173	139.1578842	3	55	6	;
	163	182	234.0347319	4	56	6	;
	163	174	49.0882673	6	57	6	;
	163	175	259.00200639999997	3	58	6	;
	164	190	196.79896710000003	3	59	6	;
	164	189	52.299100630000005	2	60	6	;
	164	173	48.54917717000001	4	61	6	;
	164	185	50.45822583	5	62	6	;
	165	178	48.239508310000005	2	63	6	;
	165	188	52.299100630000005	2	64	6	;
	165	173	49.93510694	8	65	6	;
	166	179	234.0347319	4	66	6	;
	166	188	196.79896710000003	3	67	6	;
	166	184	234.0347319	2	68	6	;
	167	177	95.99180565	3	69	6	;
	167	179	50.75697193	5	70	6	;
	167	180	52.299100630000005	2	71	6	;
	167	192	50.0	4	72	6	;
	168	176	49.247906050000005	4	73	6	;
	168	191	50.0	4	74	6	;
	168	181	50.78508436	2	75	6	;
	169	194	259.00200639999997	6	0	7	;
	169	206	234.0347319	4	1	7	;
	170	193	259.00200639999997	6	2	7	;
	170	207	49.58180928	5	3	7	;
	171	196	177.82794099999998	2	4	7	;
	171	206	171.1052372	4	5	7	;
	171	198	49.0882673	6	6	7	;
	172	195	177.82794099999998	2	7	7	;
	172	207	49.47995469000001	4	8	7	;
	172	210	100.0	5	9	7	;
	173	198	100.0	5	10	7	;
	173	213	49.93510694	8	11	7	;
	173	212	48.54917717000001	4	12	7	;
	173	201	135.12001550000002	6	13	7	;
	173	210	139.1578842	3	14	7	;
	174	200	48.76508287	4	15	7	;
	174	197	100.0	5	16	7	;
	174	195	49.0882673	6	17	7	;
	174	211	49.0882673	6	18	7	;
	175	205	50.91256152	4	19	7	;
	175	211	259.00200639999997	3	20	7	;
	176	216	49.247906050000005	4	21	7	;
	176	201	51.27526119	5	22	7	;
	176	198	48.76508287	4	23	7	;
	177	215	95.99180565	3	24	7	;
	177	202	145.6475315	3	25	7	;
	177	200	51.27526119	5	26	7	;
	177	197	135.12001550000002	6	27	7	;
	178	201	145.6475315	3	28	7	;
	178	203	50.026075629999994	4	29	7	;
	178	213	48.239508310000005	2	30	7	;
	179	214	234.0347319	4	31	7	;
	179	202	50.026075629999994	4	32	7	;
	179	204	50.599123399999996	6	33	7	;
	179	215	50.75697193	5	34	7	;
	180	203	50.599123399999996	6	35	7	;
	180	215	52.299100630000005	2	36	7	;
	180	205	48.85357564	3	37	7	;
	181	204	48.85357564	3	38	7	;
	181	199	50.91256152	4	39	7	;
	181	216	50.78508436	2	40	7	;
	182	211	234.0347319	4	41	7	;
	182	193	234.0347319	4	42	7	;
	182	195	171.1052372	4	43	7	;
	183	194	49.58180928	5	44	7	;
	183	196	49.47995469000001	4	45	7	;
	183	209	48.98587646	2	46	7	;
	184	209	78.4181131	3	47	7	;
	184	214	234.0347319	2	48	7	;
	185	212	50.45822583	5	49	7	;
	185	207	48.98587646	2	50	7	;
	185	208	78.4181131	3	51	7	;
	185	210	50.50193156	10	52	7	;
	186	196	100.0	5	53	7	;
	186	209	50.50193156	10	54	7	;
	186	197	139.1578842	3	55	7	;
	187	206	234.0347319	4	56	7	;
	187	198	49.0882673	6	57	7	;
	187	199	259.00200639999997	3	58	7	;
	188	214	196.79896710000003	3	59	7	;
	188	213	52.299100630000005	2	60	7	;
	188	197	48.54917717000001	4	61	7	;
	188	209	50.45822583	5	62	7	;
	189	202	48.239508310000005	2	63	7	;
	189	212	52.299100630000005	2	64	7	;
	189	197	49.93510694	8	65	7	;
	190	203	234.0347319	4	66	7	;
	190	212	196.79896710000003	3	67	7	;
	190	208	234.0347319	2	68	7	;
	191	201	95.99180565	3	69	7	;
	191	203	50.75697193	5	70	7	;
	191	204	52.299100630000005	2	71	7	;
	191	216	50.0	4	72	7	;
	192	200	49.247906050000005	4	73	7	;
	192	215	50.0	4	74	7	;
	192	205	50.78508436	2	75	7	;
	193	218	259.00200639999997	6	0	8	;
	193	230	234.0347319	4	1	8	;
	194	217	259.00200639999997	6	2	8	;
	194	231	49.58180928	5	3	8	;
	195	220	177.82794099999998	2	4	8	;
	195	230	171.1052372	4	5	8	;
	195	222	49.0882673	6	6	8	;
	196	219	177.82794099999998	2	7	8	;
	196	231	49.47995469000001	4	8	8	;
	196	234	100.0	5	9	8	;
	197	222	100.0	5	10	8	;
	197	237	49.93510694	8	11	8	;
	197	236	48.54917717000001	4	12	8	;
	197	225	135.12001550000002	6	13	8	;
	197	234	139.1578842	3	14	8	;
	198	224	48.76508287	4	15	8	;
	198	221	100.0	5	16	8	;
	198	219	49.0882673	6	17	8	;
	198	235	49.0882673	6	18	8	;
	199	229	50.91256152	4	19	8	;
	199	235	259.00200639999997	3	20	8	;
	200	240	49.247906050000005	4	21	8	;
	200	225	51.27526119	5	22	8	;
	200	222	48.76508287	4	23	8	;
	201	239	95.99180565	3	24	8	;
	201	226	145.6475315	3	25	8	;
	201	224	51.27526119	5	26	8	;
	201	221	135.12001550000002	6	27	8	;
	202	225	145.6475315	3	28	8	;
	202	227	50.026075629999994	4	29	8	;
	202	237	48.239508310000005	2	30	8	;
	203	238	234.0347319	4	31	8	;
	203	226	50.026075629999994	4	32	8	;
	203	228	50.599123399999996	6	33	8	;
	203	239	50.75697193	5	34	8	;
	204	227	50.599123399999996	6	35	8	;
	204	239	52.299100630000005	2	36	8	;
	204	229	48.85357564	3	37	8	;
	205	228	48.85357564	3	38	8	;
	205	223	50.91256152	4	39	8	;
	205	240	50.78508436	2	40	8	;
	206	235	234.0347319	4	41	8	;
	206	217	234.0347319	4	42	8	;
	206	219	171.1052372	4	43	8	;
	207	218	49.58180928	5	44	8	;
	207	220	49.47995469000001	4	45	8	;
	207	233	48.98587646	2	46	8	;
	208	233	78.4181131	3	47	8	;
	208	238	234.0347319	2	48	8	;
	209	236	50.45822583	5	49	8	;
	209	231	48.98587646	2	50	8	;
	209	232	78.4181131	3	51	8	;
	209	234	50.50193156	10	52	8	;
	210	220	100.0	5	53	8	;
	210	233	50.50193156	10	54	8	;
	210	221	139.1578842	3	55	8	;
	211	230	234.0347319	4	56	8	;
	211	222	49.0882673	6	57	8	;
	211	223	259.00200639999997	3	58	8	;
	212	238	196.79896710000003	3	59	8	;
	212	237	52.299100630000005	2	60	8	;
	212	221	48.54917717000001	4	61	8	;
	212	233	50.45822583	5	62	8	;
	213	226	48.239508310000005	2	63	8	;
	213	236	52.299100630000005	2	64	8	;
	213	221	49.93510694	8	65	8	;
	214	227	234.0347319	4	66	8	;
	214	236	196.79896710000003	3	67	8	;
	214	232	234.0347319	2	68	8	;
	215	225	95.99180565	3	69	8	;
	215	227	50.75697193	5	70	8	;
	215	228	52.299100630000005	2	71	8	;
	215	240	50.0	4	72	8	;
	216	224	49.247906050000005	4	73	8	;
	216	239	50.0	4	74	8	;
	216	229	50.78508436	2	75	8	;
	217	242	259.00200639999997	6	0	9	;
	217	254	234.0347319	4	1	9	;
	218	241	259.00200639999997	6	2	9	;
	218	255	49.58180928	5	3	9	;
	219	244	177.82794099999998	2	4	9	;
	219	254	171.1052372	4	5	9	;
	219	246	49.0882673	6	6	9	;
	220	243	177.82794099999998	2	7	9	;
	220	255	49.47995469000001	4	8	9	;
	220	258	100.0	5	9	9	;
	221	246	100.0	5	10	9	;
	221	261	49.93510694	8	11	9	;
	221	260	48.54917717000001	4	12	9	;
	221	249	135.12001550000002	6	13	9	;
	221	258	139.1578842	3	14	9	;
	222	248	48.76508287	4	15	9	;
	222	245	100.0	5	16	9	;
	222	243	49.0882673	6	17	9	;
	222	259	49.0882673	6	18	9	;
	223	253	50.91256152	4	19	9	;
	223	259	259.00200639999997	3	20	9	;
	224	264	49.247906050000005	4	21	9	;
	224	249	51.27526119	5	22	9	;
	224	246	48.76508287	4	23	9	;
	225	263	95.99180565	3	24	9	;
	225	250	145.6475315	3	25	9	;
	225	248	51.27526119	5	26	9	;
	225	245	135.12001550000002	6	27	9	;
	226	249	145.6475315	3	28	9	;
	226	251	50.026075629999994	4	29	9	;
	226	261	48.239508310000005	2	30	9	;
	227	262	234.0347319	4	31	9	;
	227	250	50.026075629999994	4	32	9	;
	227	252	50.599123399999996	6	33	9	;
	227	263	50.75697193	5	34	9	;
	228	251	50.599123399999996	6	35	9	;
	228	263	52.299100630000005	2	36	9	;
	228	253	48.85357564	3	37	9	;
	229	252	48.85357564	3	38	9	;
	229	247	50.91256152	4	39	9	;
	229	264	50.78508436	2	40	9	;
	230	259	234.0347319	4	41	9	;
	230	241	234.0347319	4	42	9	;
	230	243	171.1052372	4	43	9	;
	231	242	49.58180928	5	44	9	;
	231	244	49.47995469000001	4	45	9	;
	231	257	48.98587646	2	46	9	;
	232	257	78.4181131	3	47	9	;
	232	262	234.0347319	2	48	9	;
	233	260	50.45822583	5	49	9	;
	233	255	48.98587646	2	50	9	;
	233	256	78.4181131	3	51	9	;
	233	258	50.50193156	10	52	9	;
	234	244	100.0	5	53	9	;
	234	257	50.50193156	10	54	9	;
	234	245	139.1578842	3	55	9	;
	235	254	234.0347319	4	56	9	;
	235	246	49.0882673	6	57	9	;
	235	247	259.00200639999997	3	58	9	;
	236	262	196.79896710000003	3	59	9	;
	236	261	52.299100630000005	2	60	9	;
	236	245	48.54917717000001	4	61	9	;
	236	257	50.45822583	5	62	9	;
	237	250	48.239508310000005	2	63	9	;
	237	260	52.299100630000005	2	64	9	;
	237	245	49.93510694	8	65	9	;
	238	251	234.0347319	4	66	9	;
	238	260	196.79896710000003	3	67	9	;
	238	256	234.0347319	2	68	9	;
	239	249	95.99180565	3	69	9	;
	239	251	50.75697193	5	70	9	;
	239	252	52.299100630000005	2	71	9	;
	239	264	50.0	4	72	9	;
	240	248	49.247906050000005	4	73	9	;
	240	263	50.0	4	74	9	;
	240	253	50.78508436	2	75	9	;
	241	266	259.00200639999997	6	0	10	;
	241	278	234.0347319	4	1	10	;
	242	265	259.00200639999997	6	2	10	;
	242	279	49.58180928	5	3	10	;
	243	268	177.82794099999998	2	4	10	;
	243	278	171.1052372	4	5	10	;
	243	270	49.0882673	6	6	10	;
	244	267	177.82794099999998	2	7	10	;
	244	279	49.47995469000001	4	8	10	;
	244	282	100.0	5	9	10	;
	245	270	100.0	5	10	10	;
	245	285	49.93510694	8	11	10	;
	245	284	48.54917717000001	4	12	10	;
	245	273	135.12001550000002	6	13	10	;
	245	282	139.1578842	3	14	10	;
	246	272	48.76508287	4	15	10	;
	246	269	100.0	5	16	10	;
	246	267	49.0882673	6	17	10	;
	246	283	49.0882673	6	18	10	;
	247	277	50.91256152	4	19	10	;
	247	283	259.00200639999997	3	20	10	;
	248	288	49.247906050000005	4	21	10	;
	248	273	51.27526119	5	22	10	;
	248	270	48.76508287	4	23	10	;
	249	287	95.99180565	3	24	10	;
	249	274	145.6475315	3	25	10	;
	249	272	51.27526119	5	26	10	;
	249	269	135.12001550000002	6	27	10	;
	250	273	145.6475315	3	28	10	;
	250	275	50.026075629999994	4	29	10	;
	250	285	48.239508310000005	2	30	10	;
	251	286	234.0347319	4	31	10	;
	251	274	50.026075629999994	4	32	10	;
	251	276	50.599123399999996	6	33	10	;
	251	287	50.75697193	5	34	10	;
	252	275	50.599123399999996	6	35	10	;
	252	287	52.299100630000005	2	36	10	;
	252	277	48.85357564	3	37	10	;
	253	276	48.85357564	3	38	10	;
	253	271	50.91256152	4	39	10	;
	253	288	50.78508436	2	40	10	;
	254	283	234.0347319	4	41	10	;
	254	265	234.0347319	4	42	10	;
	254	267	171.1052372	4	43	10	;
	255	266	49.58180928	5	44	10	;
	255	268	49.47995469000001	4	45	10	;
	255	281	48.98587646	2	46	10	;
	256	281	78.4181131	3	47	10	;
	256	286	234.0347319	2	48	10	;
	257	284	50.45822583	5	49	10	;
	257	279	48.98587646	2	50	10	;
	257	280	78.4181131	3	51	10	;
	257	282	50.50193156	10	52	10	;
	258	268	100.0	5	53	10	;
	258	281	50.50193156	10	54	10	;
	258	269	139.1578842	3	55	10	;
	259	278	234.0347319	4	56	10	;
	259	270	49.0882673	6	57	10	;
	259	271	259.00200639999997	3	58	10	;
	260	286	196.79896710000003	3	59	10	;
	260	285	52.299100630000005	2	60	10	;
	260	269	48.54917717000001	4	61	10	;
	260	281	50.45822583	5	62	10	;
	261	274	48.239508310000005	2	63	10	;
	261	284	52.299100630000005	2	64	10	;
	261	269	49.93510694	8	65	10	;
	262	275	234.0347319	4	66	10	;
	262	284	196.79896710000003	3	67	10	;
	262	280	234.0347319	2	68	10	;
	263	273	95.99180565	3	69	10	;
	263	275	50.75697193	5	70	10	;
	263	276	52.299100630000005	2	71	10	;
	263	288	50.0	4	72	10	;
	264	272	49.247906050000005	4	73	10	;
	264	287	50.0	4	74	10	;
	264	277	50.78508436	2	75	10	;
	265	290	259.00200639999997	6	0	11	;
	265	302	234.0347319	4	1	11	;
	266	289	259.00200639999997	6	2	11	;
	266	303	49.58180928	5	3	11	;
	267	292	177.82794099999998	2	4	11	;
	267	302	171.1052372	4	5	11	;
	267	294	49.0882673	6	6	11	;
	268	291	177.82794099999998	2	7	11	;
	268	303	49.47995469000001	4	8	11	;
	268	306	100.0	5	9	11	;
	269	294	100.0	5	10	11	;
	269	309	49.93510694	8	11	11	;
	269	308	48.54917717000001	4	12	11	;
	269	297	135.12001550000002	6	13	11	;
	269	306	139.1578842	3	14	11	;
	270	296	48.76508287	4	15	11	;
	270	293	100.0	5	16	11	;
	270	291	49.0882673	6	17	11	;
	270	307	49.0882673	6	18	11	;
	271	301	50.91256152	4	19	11	;
	271	307	259.00200639999997	3	20	11	;
	272	312	49.247906050000005	4	21	11	;
	272	297	51.27526119	5	22	11	;
	272	294	48.76508287	4	23	11	;
	273	311	95.99180565	3	24	11	;
	273	298	145.6475315	3	25	11	;
	273	296	51.27526119	5	26	11	;
	273	293	135.12001550000002	6	27	11	;
	274	297	145.6475315	3	28	11	;
	274	299	50.026075629999994	4	29	11	;
	274	309	48.239508310000005	2	30	11	;
	275	310	234.0347319	4	31	11	;
	275	298	50.026075629999994	4	32	11	;
	275	300	50.599123399999996	6	33	11	;
	275	311	50.75697193	5	34	11	;
	276	299	50.599123399999996	6	35	11	;
	276	311	52.299100630000005	2	36	11	;
	276	301	48.85357564	3	37	11	;
	277	300	48.85357564	3	38	11	;
	277	295	50.91256152	4	39	11	;
	277	312	50.78508436	2	40	11	;
	278	307	234.0347319	4	41	11	;
	278	289	234.0347319	4	42	11	;
	278	291	171.1052372	4	43	11	;
	279	290	49.58180928	5	44	11	;
	279	292	49.47995469000001	4	45	11	;
	279	305	48.98587646	2	46	11	;
	280	305	78.4181131	3	47	11	;
	280	310	234.0347319	2	48	11	;
	281	308	50.45822583	5	49	11	;
	281	303	48.98587646	2	50	11	;
	281	304	78.4181131	3	51	11	;
	281	306	50.50193156	10	52	11	;
	282	292	100.0	5	53	11	;
	282	305	50.50193156	10	54	11	;
	282	293	139.1578842	3	55	11	;
	283	302	234.0347319	4	56	11	;
	283	294	49.0882673	6	57	11	;
	283	295	259.00200639999997	3	58	11	;
	284	310	196.79896710000003	3	59	11	;
	284	309	52.299100630000005	2	60	11	;
	284	293	48.54917717000001	4	61	11	;
	284	305	50.45822583	5	62	11	;
	285	298	48.239508310000005	2	63	11	;
	285	308	52.299100630000005	2	64	11	;
	285	293	49.93510694	8	65	11	;
	286	299	234.0347319	4	66	11	;
	286	308	196.79896710000003	3	67	11	;
	286	304	234.0347319	2	68	11	;
	287	297	95.99180565	3	69	11	;
	287	299	50.75697193	5	70	11	;
	287	300	52.299100630000005	2	71	11	;
	287	312	50.0	4	72	11	;
	288	296	49.247906050000005	4	73	11	;
	288	311	50.0	4	74	11	;
	288	301	50.78508436	2	75	11	;
	289	314	259.00200639999997	6	0	12	;
	289	326	234.0347319	4	1	12	;
	290	313	259.00200639999997	6	2	12	;
	290	327	49.58180928	5	3	12	;
	291	316	177.82794099999998	2	4	12	;
	291	326	171.1052372	4	5	12	;
	291	318	49.0882673	6	6	12	;
	292	315	177.82794099999998	2	7	12	;
	292	327	49.47995469000001	4	8	12	;
	292	330	100.0	5	9	12	;
	293	318	100.0	5	10	12	;
	293	333	49.93510694	8	11	12	;
	293	332	48.54917717000001	4	12	12	;
	293	321	135.12001550000002	6	13	12	;
	293	330	139.1578842	3	14	12	;
	294	320	48.76508287	4	15	12	;
	294	317	100.0	5	16	12	;
	294	315	49.0882673	6	17	12	;
	294	331	49.0882673	6	18	12	;
	295	325	50.91256152	4	19	12	;
	295	331	259.00200639999997	3	20	12	;
	296	336	49.247906050000005	4	21	12	;
	296	321	51.27526119	5	22	12	;
	296	318	48.76508287	4	23	12	;
	297	335	95.99180565	3	24	12	;
	297	322	145.6475315	3	25	12	;
	297	320	51.27526119	5	26	12	;
	297	317	135.12001550000002	6	27	12	;
	298	321	145.6475315	3	28	12	;
	298	323	50.026075629999994	4	29	12	;
	298	333	48.239508310000005	2	30	12	;
	299	334	234.0347319	4	31	12	;
	299	322	50.026075629999994	4	32	12	;
	299	324	50.599123399999996	6	33	12	;
	299	335	50.75697193	5	34	12	;
	300	323	50.599123399999996	6	35	12	;
	300	335	52.299100630000005	2	36	12	;
	300	325	48.85357564	3	37	12	;
	301	324	48.85357564	3	38	12	;
	301	319	50.91256152	4	39	12	;
	301	336	50.78508436	2	40	12	;