<NUMBER OF ZONES> 12
<NUMBER OF NODES> 480
<FIRST THRU NODE> 1
<NUMBER OF LINKS> 1444
<ORIGINAL HEADER> 
<END OF METADATA>


~	init_node	term_node	capacity	free_flow_time	original_link	time	;
	1	26	259.00200639999997	6	0	0	;
	1	31	234.0347319	4	1	0	;
	2	25	259.00200639999997	6	2	0	;
	2	34	49.58180928	5	3	0	;
	3	42	49.93510694	8	4	0	;
	3	41	48.54917717000001	4	5	0	;
	3	40	135.12001550000002	6	6	0	;
	3	28	100.0	5	7	0	;
	3	37	139.1578842	3	8	0	;
	4	39	48.76508287	4	9	0	;
	4	38	49.0882673	6	10	0	;
	4	27	100.0	5	11	0	;
	4	32	49.0882673	6	12	0	;
	5	48	50.91256152	4	13	0	;
	5	38	259.00200639999997	3	14	0	;
	6	44	50.026075629999994	4	15	0	;
	6	45	50.599123399999996	6	16	0	;
	6	46	50.75697193	5	17	0	;
	6	43	234.0347319	4	18	0	;
	7	25	234.0347319	4	19	0	;
	7	32	171.1052372	4	20	0	;
	7	38	234.0347319	4	21	0	;
	8	33	177.82794099999998	2	22	0	;
	8	31	171.1052372	4	23	0	;
	8	28	49.0882673	6	24	0	;
	9	32	177.82794099999998	2	25	0	;
	9	37	100.0	5	26	0	;
	9	34	49.47995469000001	4	27	0	;
	10	36	48.98587646	2	28	0	;
	10	33	49.47995469000001	4	29	0	;
	10	26	49.58180928	5	30	0	;
	11	36	78.4181131	3	31	0	;
	11	43	234.0347319	2	32	0	;
	12	34	48.98587646	2	33	0	;
	12	35	78.4181131	3	34	0	;
	12	37	50.50193156	10	35	0	;
	12	41	50.45822583	5	36	0	;
	13	33	100.0	5	37	0	;
	13	36	50.50193156	10	38	0	;
	13	27	139.1578842	3	39	0	;
	14	28	49.0882673	6	40	0	;
	14	29	259.00200639999997	3	41	0	;
	14	31	234.0347319	4	42	0	;
	15	28	48.76508287	4	43	0	;
	15	40	51.27526119	5	44	0	;
	15	47	49.247906050000005	4	45	0	;
	16	46	95.99180565	3	46	0	;
	16	27	135.12001550000002	6	47	0	;
	16	39	51.27526119	5	48	0	;
	16	44	145.6475315	3	49	0	;
	17	36	50.45822583	5	50	0	;
	17	27	48.54917717000001	4	51	0	;
	17	43	196.79896710000003	3	52	0	;
	17	42	52.299100630000005	2	53	0	;
	18	44	48.239508310000005	2	54	0	;
	18	27	49.93510694	8	55	0	;
	18	41	52.299100630000005	2	56	0	;
	19	35	234.0347319	2	57	0	;
	19	41	196.79896710000003	3	58	0	;
	19	30	234.0347319	4	59	0	;
	20	40	145.6475315	3	60	0	;
	20	42	48.239508310000005	2	61	0	;
	20	30	50.026075629999994	4	62	0	;
	21	48	48.85357564	3	63	0	;
	21	30	50.599123399999996	6	64	0	;
	21	46	52.299100630000005	2	65	0	;
	22	40	95.99180565	3	66	0	;
	22	30	50.75697193	5	67	0	;
	22	45	52.299100630000005	2	68	0	;
	22	47	50.0	4	69	0	;
	23	39	49.247906050000005	4	70	0	;
	23	46	50.0	4	71	0	;
	23	48	50.78508436	2	72	0	;
	24	45	48.85357564	3	73	0	;
	24	29	50.91256152	4	74	0	;
	24	47	50.78508436	2	75	0	;
	25	50	259.00200639999997	6	0	1	;
	25	55	234.0347319	4	1	1	;
	26	49	259.00200639999997	6	2	1	;
	26	58	49.58180928	5	3	1	;
	27	66	49.93510694	8	4	1	;
	27	65	48.54917717000001	4	5	1	;
	27	64	135.12001550000002	6	6	1	;
	27	52	100.0	5	7	1	;
	27	61	139.1578842	3	8	1	;
	28	63	48.76508287	4	9	1	;
	28	62	49.0882673	6	10	1	;
	28	51	100.0	5	11	1	;
	28	56	49.0882673	6	12	1	;
	29	72	50.91256152	4	13	1	;
	29	62	259.00200639999997	3	14	1	;
	30	68	50.026075629999994	4	15	1	;
	30	69	50.599123399999996	6	16	1	;
	30	70	50.75697193	5	17	1	;
	30	67	234.0347319	4	18	1	;
	31	49	234.0347319	4	19	1	;
	31	56	171.1052372	4	20	1	;
	31	62	234.0347319	4	21	1	;
	32	57	177.82794099999998	2	22	1	;
	32	55	171.1052372	4	23	1	;
	32	52	49.0882673	6	24	1	;
	33	56	177.82794099999998	2	25	1	;
	33	61	100.0	5	26	1	;
	33	58	49.47995469000001	4	27	1	;
	34	60	48.98587646	2	28	1	;
	34	57	49.47995469000001	4	29	1	;
	34	50	49.58180928	5	30	1	;
	35	60	78.4181131	3	31	1	;
	35	67	234.0347319	2	32	1	;
	36	58	48.98587646	2	33	1	;
	36	59	78.4181131	3	34	1	;
	36	61	50.50193156	10	35	1	;
	36	65	50.45822583	5	36	1	;
	37	57	100.0	5	37	1	;
	37	60	50.50193156	10	38	1	;
	37	51	139.1578842	3	39	1	;
	38	52	49.0882673	6	40	1	;
	38	53	259.00200639999997	3	41	1	;
	38	55	234.0347319	4	42	1	;
	39	52	48.76508287	4	43	1	;
	39	64	51.27526119	5	44	1	;
	39	71	49.247906050000005	4	45	1	;
	40	70	95.99180565	3	46	1	;
	40	51	135.12001550000002	6	47	1	;
	40	63	51.27526119	5	48	1	;
	40	68	145.6475315	3	49	1	;
	41	60	50.45822583	5	50	1	;
	41	51	48.54917717000001	4	51	1	;
	41	67	196.79896710000003	3	52	1	;
	41	66	52.299100630000005	2	53	1	;
	42	68	48.239508310000005	2	54	1	;
	42	51	49.93510694	8	55	1	;
	42	65	52.299100630000005	2	56	1	;
	43	59	234.0347319	2	57	1	;
	43	65	196.79896710000003	3	58	1	;
	43	54	234.0347319	4	59	1	;
	44	64	145.6475315	3	60	1	;
	44	66	48.239508310000005	2	61	1	;
	44	54	50.026075629999994	4	62	1	;
	45	72	48.85357564	3	63	1	;
	45	54	50.599123399999996	6	64	1	;
	45	70	52.299100630000005	2	65	1	;
	46	64	95.99180565	3	66	1	;
	46	54	50.75697193	5	67	1	;
	46	69	52.299100630000005	2	68	1	;
	46	71	50.0	4	69	1	;
	47	63	49.247906050000005	4	70	1	;
	47	70	50.0	4	71	1	;
	47	72	50.78508436	2	72	1	;
	48	69	48.85357564	3	73	1	;
	48	53	50.91256152	4	74	1	;
	48	71	50.78508436	2	75	1	;
	49	74	259.00200639999997	6	0	2	;
	49	79	234.0347319	4	1	2	;
	50	73	259.00200639999997	6	2	2	;
	50	82	49.58180928	5	3	2	;
	51	90	49.93510694	8	4	2	;
	51	89	48.54917717000001	4	5	2	;
	51	88	135.12001550000002	6	6	2	;
	51	76	100.0	5	7	2	;
	51	85	139.1578842	3	8	2	;
	52	87	48.76508287	4	9	2	;
	52	86	49.0882673	6	10	2	;
	52	75	100.0	5	11	2	;
	52	80	49.0882673	6	12	2	;
	53	96	50.91256152	4	13	2	;
	53	86	259.00200639999997	3	14	2	;
	54	92	50.026075629999994	4	15	2	;
	54	93	50.599123399999996	6	16	2	;
	54	94	50.75697193	5	17	2	;
	54	91	234.0347319	4	18	2	;
	55	73	234.0347319	4	19	2	;
	55	80	171.1052372	4	20	2	;
	55	86	234.0347319	4	21	2	;
	56	81	177.82794099999998	2	22	2	;
	56	79	171.1052372	4	23	2	;
	56	76	49.0882673	6	24	2	;
	57	80	177.82794099999998	2	25	2	;
	57	85	100.0	5	26	2	;
	57	82	49.47995469000001	4	27	2	;
	58	84	48.98587646	2	28	2	;
	58	81	49.47995469000001	4	29	2	;
	58	74	49.58180928	5	30	2	;
	59	84	78.4181131	3	31	2	;
	59	91	234.0347319	2	32	2	;
	60	82	48.98587646	2	33	2	;
	60	83	78.4181131	3	34	2	;
	60	85	50.50193156	10	35	2	;
	60	89	50.45822583	5	36	2	;
	61	81	100.0	5	37	2	;
	61	84	50.50193156	10	38	2	;
	61	75	139.1578842	3	39	2	;
	62	76	49.0882673	6	40	2	;
	62	77	259.00200639999997	3	41	2	;
	62	79	234.0347319	4	42	2	;
	63	76	48.76508287	4	43	2	;
	63	88	51.27526119	5	44	2	;
	63	95	49.247906050000005	4	45	2	;
	64	94	95.99180565	3	46	2	;
	64	75	135.12001550000002	6	47	2	;
	64	87	51.27526119	5	48	2	;
	64	92	145.6475315	3	49	2	;
	65	84	50.45822583	5	50	2	;
	65	75	48.54917717000001	4	51	2	;
	65	91	196.79896710000003	3	52	2	;
	65	90	52.299100630000005	2	53	2	;
	66	92	48.239508310000005	2	54	2	;
	66	75	49.93510694	8	55	2	;
	66	89	52.299100630000005	2	56	2	;
	67	83	234.0347319	2	57	2	;
	67	89	196.79896710000003	3	58	2	;
	67	78	234.0347319	4	59	2	;
	68	88	145.6475315	3	60	2	;
	68	90	48.239508310000005	2	61	2	;
	68	78	50.026075629999994	4	62	2	;
	69	96	48.85357564	3	63	2	;
	69	78	50.599123399999996	6	64	2	;
	69	94	52.299100630000005	2	65	2	;
	70	88	95.99180565	3	66	2	;
	70	78	50.75697193	5	67	2	;
	70	93	52.299100630000005	2	68	2	;
	70	95	50.0	4	69	2	;
	71	87	49.247906050000005	4	70	2	;
	71	94	50.0	4	71	2	;
	71	96	50.78508436	2	72	2	;
	72	93	48.85357564	3	73	2	;
	72	77	50.91256152	4	74	2	;
	72	95	50.78508436	2	75	2	;
	73	98	259.00200639999997	6	0	3	;
	73	103	234.0347319	4	1	3	;
	74	97	259.00200639999997	6	2	3	;
	74	106	49.58180928	5	3	3	;
	75	114	49.93510694	8	4	3	;
	75	113	48.54917717000001	4	5	3	;
	75	112	135.12001550000002	6	6	3	;
	75	100	100.0	5	7	3	;
	75	109	139.1578842	3	8	3	;
	76	111	48.76508287	4	9	3	;
	76	110	49.0882673	6	10	3	;
	76	99	100.0	5	11	3	;
	76	104	49.0882673	6	12	3	;
	77	120	50.91256152	4	13	3	;
	77	110	259.00200639999997	3	14	3	;
	78	116	50.026075629999994	4	15	3	;
	78	117	50.599123399999996	6	16	3	;
	78	118	50.75697193	5	17	3	;
	78	115	234.0347319	4	18	3	;
	79	97	234.0347319	4	19	3	;
	79	104	171.1052372	4	20	3	;
	79	110	234.0347319	4	21	3	;
	80	105	177.82794099999998	2	22	3	;
	80	103	171.1052372	4	23	3	;
	80	100	49.0882673	6	24	3	;
	81	104	177.82794099999998	2	25	3	;
	81	109	100.0	5	26	3	;
	81	106	49.47995469000001	4	27	3	;
	82	108	48.98587646	2	28	3	;
	82	105	49.47995469000001	4	29	3	;
	82	98	49.58180928	5	30	3	;
	83	108	78.4181131	3	31	3	;
	83	115	234.0347319	2	32	3	;
	84	106	48.98587646	2	33	3	;
	84	107	78.4181131	3	34	3	;
	84	109	50.50193156	10	35	3	;
	84	113	50.45822583	5	36	3	;
	85	105	100.0	5	37	3	;
	85	108	50.50193156	10	38	3	;
	85	99	139.1578842	3	39	3	;
	86	100	49.0882673	6	40	3	;
	86	101	259.00200639999997	3	41	3	;
	86	103	234.0347319	4	42	3	;
	87	100	48.76508287	4	43	3	;
	87	112	51.27526119	5	44	3	;
	87	119	49.247906050000005	4	45	3	;
	88	118	95.99180565	3	46	3	;
	88	99	135.12001550000002	6	47	3	;
	88	111	51.27526119	5	48	3	;
	88	116	145.6475315	3	49	3	;
	89	108	50.45822583	5	50	3	;
	89	99	48.54917717000001	4	51	3	;
	89	115	196.79896710000003	3	52	3	;
	89	114	52.299100630000005	2	53	3	;
	90	116	48.239508310000005	2	54	3	;
	90	99	49.93510694	8	55	3	;
	90	113	52.299100630000005	2	56	3	;
	91	107	234.0347319	2	57	3	;
	91	113	196.79896710000003	3	58	3	;
	91	102	234.0347319	4	59	3	;
	92	112	145.6475315	3	60	3	;
	92	114	48.239508310000005	2	61	3	;
	92	102	50.026075629999994	4	62	3	;
	93	120	48.85357564	3	63	3	;
	93	102	50.599123399999996	6	64	3	;
	93	118	52.299100630000005	2	65	3	;
	94	112	95.99180565	3	66	3	;
	94	102	50.75697193	5	67	3	;
	94	117	52.299100630000005	2	68	3	;
	94	119	50.0	4	69	3	;
	95	111	49.247906050000005	4	70	3	;
	95	118	50.0	4	71	3	;
	95	120	50.78508436	2	72	3	;
	96	117	48.85357564	3	73	3	;
	96	101	50.91256152	4	74	3	;
	96	119	50.78508436	2	75	3	;
	97	122	259.00200639999997	6	0	4	;
	97	127	234.0347319	4	1	4	;
	98	121	259.00200639999997	6	2	4	;
	98	130	49.58180928	5	3	4	;
	99	138	49.93510694	8	4	4	;
	99	137	48.54917717000001	4	5	4	;
	99	136	135.12001550000002	6	6	4	;
	99	124	100.0	5	7	4	;
	99	133	139.1578842	3	8	4	;
	100	135	48.76508287	4	9	4	;
	100	134	49.0882673	6	10	4	;
	100	123	100.0	5	11	4	;
	100	128	49.0882673	6	12	4	;
	101	144	50.91256152	4	13	4	;
	101	134	259.00200639999997	3	14	4	;
	102	140	50.026075629999994	4	15	4	;
	102	141	50.599123399999996	6	16	4	;
	102	142	50.75697193	5	17	4	;
	102	139	234.0347319	4	18	4	;
	103	121	234.0347319	4	19	4	;
	103	128	171.1052372	4	20	4	;
	103	134	234.0347319	4	21	4	;
	104	129	177.82794099999998	2	22	4	;
	104	127	171.1052372	4	23	4	;
	104	124	49.0882673	6	24	4	;
	105	128	177.82794099999998	2	25	4	;
	105	133	100.0	5	26	4	;
	105	130	49.47995469000001	4	27	4	;
	106	132	48.98587646	2	28	4	;
	106	129	49.47995469000001	4	29	4	;
	106	122	49.58180928	5	30	4	;
	107	132	78.4181131	3	31	4	;
	107	139	234.0347319	2	32	4	;
	108	130	48.98587646	2	33	4	;
	108	131	78.4181131	3	34	4	;
	108	133	50.50193156	10	35	4	;
	108	137	50.45822583	5	36	4	;
	109	129	100.0	5	37	4	;
	109	132	50.50193156	10	38	4	;
	109	123	139.1578842	3	39	4	;
	110	124	49.0882673	6	40	4	;
	110	125	259.00200639999997	3	41	4	;
	110	127	234.0347319	4	42	4	;
	111	124	48.76508287	4	43	4	;
	111	136	51.27526119	5	44	4	;
	111	143	49.247906050000005	4	45	4	;
	112	142	95.99180565	3	46	4	;
	112	123	135.12001550000002	6	47	4	;
	112	135	51.27526119	5	48	4	;
	112	140	145.6475315	3	49	4	;
	113	132	50.45822583	5	50	4	;
	113	123	48.54917717000001	4	51	4	;
	113	139	196.79896710000003	3	52	4	;
	113	138	52.299100630000005	2	53	4	;
	114	140	48.239508310000005	2	54	4	;
	114	123	49.93510694	8	55	4	;
	114	137	52.299100630000005	2	56	4	;
	115	131	234.0347319	2	57	4	;
	115	137	196.79896710000003	3	58	4	;
	115	126	234.0347319	4	59	4	;
	116	136	145.6475315	3	60	4	;
	116	138	48.239508310000005	2	61	4	;
	116	126	50.026075629999994	4	62	4	;
	117	144	48.85357564	3	63	4	;
	117	126	50.599123399999996	6	64	4	;
	117	142	52.299100630000005	2	65	4	;
	118	136	95.99180565	3	66	4	;
	118	126	50.75697193	5	67	4	;
	118	141	52.299100630000005	2	68	4	;
	118	143	50.0	4	69	4	;
	119	135	49.247906050000005	4	70	4	;
	119	142	50.0	4	71	4	;
	119	144	50.78508436	2	72	4	;
	120	141	48.85357564	3	73	4	;
	120	125	50.91256152	4	74	4	;
	120	143	50.78508436	2	75	4	;
	121	146	259.00200639999997	6	0	5	;
	121	151	234.0347319	4	1	5	;
	122	145	259.00200639999997	6	2	5	;
	122	154	49.58180928	5	3	5	;
	123	162	49.93510694	8	4	5	;
	123	161	48.54917717000001	4	5	5	;
	123	160	135.12001550000002	6	6	5	;
	123	148	100.0	5	7	5	;
	123	157	139.1578842	3	8	5	;
	124	159	48.76508287	4	9	5	;
	124	158	49.0882673	6	10	5	;
	124	147	100.0	5	11	5	;
	124	152	49.0882673	6	12	5	;
	125	168	50.91256152	4	13	5	;
	125	158	259.00200639999997	3	14	5	;
	126	164	50.026075629999994	4	15	5	;
	126	165	50.599123399999996	6	16	5	;
	126	166	50.75697193	5	17	5	;
	126	163	234.0347319	4	18	5	;
	127	145	234.0347319	4	19	5	;
	127	152	171.1052372	4	20	5	;
	127	158	234.0347319	4	21	5	;
	128	153	177.82794099999998	2	22	5	;
	128	151	171.1052372	4	23	5	;
	128	148	49.0882673	6	24	5	;
	129	152	177.82794099999998	2	25	5	;
	129	157	100.0	5	26	5	;
	129	154	49.47995469000001	4	27	5	;
	130	156	48.98587646	2	28	5	;
	130	153	49.47995469000001	4	29	5	;
	130	146	49.58180928	5	30	5	;
	131	156	78.4181131	3	31	5	;
	131	163	234.0347319	2	32	5	;
	132	154	48.98587646	2	33	5	;
	132	155	78.4181131	3	34	5	;
	132	157	50.50193156	10	35	5	;
	132	161	50.45822583	5	36	5	;
	133	153	100.0	5	37	5	;
	133	156	50.50193156	10	38	5	;
	133	147	139.1578842	3	39	5	;
	134	148	49.0882673	6	40	5	;
	134	149	259.00200639999997	3	41	5	;
	134	151	234.0347319	4	42	5	;
	135	148	48.76508287	4	43	5	;
	135	160	51.27526119	5	44	5	;
	135	167	49.247906050000005	4	45	5	;
	136	166	95.99180565	3	46	5	;
	136	147	135.12001550000002	6	47	5	;
	136	159	51.27526119	5	48	5	;
	136	164	145.6475315	3	49	5	;
	137	156	50.45822583	5	50	5	;
	137	147	48.54917717000001	4	51	5	;
	137	163	196.79896710000003	3	52	5	;
	137	162	52.299100630000005	2	53	5	;
	138	164	48.239508310000005	2	54	5	;
	138	147	49.93510694	8	55	5	;
	138	161	52.299100630000005	2	56	5	;
	139	155	234.0347319	2	57	5	;
	139	161	196.79896710000003	3	58	5	;
	139	150	234.0347319	4	59	5	;
	140	160	145.6475315	3	60	5	;
	140	162	48.239508310000005	2	61	5	;
	140	150	50.026075629999994	4	62	5	;
	141	168	48.85357564	3	63	5	;
	141	150	50.599123399999996	6	64	5	;
	141	166	52.299100630000005	2	65	5	;
	142	160	95.99180565	3	66	5	;
	142	150	50.75697193	5	67	5	;
	142	165	52.299100630000005	2	68	5	;
	142	167	50.0	4	69	5	;
	143	159	49.247906050000005	4	70	5	;
	143	166	50.0	4	71	5	;
	143	168	50.78508436	2	72	5	;
	144	165	48.85357564	3	73	5	;
	144	149	50.91256152	4	74	5	;
	144	167	50.78508436	2	75	5	;
	145	170	259.00200639999997	6	0	6	;
	145	175	234.0347319	4	1	6	;
	146	169	259.00200639999997	6	2	6	;
	146	178	49.58180928	5	3	6	;
	147	186	49.93510694	8	4	6	;
	147	185	48.54917717000001	4	5	6	;
	147	184	135.12001550000002	6	6	6	;
	147	172	100.0	5	7	6	;
	147	181	139.1578842	3	8	6	;
	148	183	48.76508287	4	9	6	;
	148	182	49.0882673	6	10	6	;
	148	171	100.0	5	11	6	;
	148	176	49.0882673	6	12	6	;
	149	192	50.91256152	4	13	6	;
	149	182	259.00200639999997	3	14	6	;
	150	188	50.026075629999994	4	15	6	;
	150	189	50.599123399999996	6	16	6	;
	150	190	50.75697193	5	17	6	;
	150	187	234.0347319	4	18	6	;
	151	169	234.0347319	4	19	6	;
	151	176	171.1052372	4	20	6	;
	151	182	234.0347319	4	21	6	;
	152	177	177.82794099999998	2	22	6	;
	152	175	171.1052372	4	23	6	;
	152	172	49.0882673	6	24	6	;
	153	176	177.82794099999998	2	25	6	;
	153	181	100.0	5	26	6	;
	153	178	49.47995469000001	4	27	6	;
	154	180	48.98587646	2	28	6	;
	154	177	49.47995469000001	4	29	6	;
	154	170	49.58180928	5	30	6	;
	155	180	78.4181131	3	31	6	;
	155	187	234.0347319	2	32	6	;
	156	178	48.98587646	2	33	6	;
	156	179	78.4181131	3	34	6	;
	156	181	50.50193156	10	35	6	;
	156	185	50.45822583	5	36	6	;
	157	177	100.0	5	37	6	;
	157	180	50.50193156	10	38	6	;
	157	171	139.1578842	3	39	6	;
	158	172	49.0882673	6	40	6	;
	158	173	259.00200639999997	3	41	6	;
	158	175	234.0347319	4	42	6	;
	159	172	48.76508287	4	43	6	;
	159	184	51.27526119	5	44	6	;
	159	191	49.247906050000005	4	45	6	;
	160	190	95.99180565	3	46	6	;
	160	171	135.12001550000002	6	47	6	;
	160	183	51.27526119	5	48	6	;
	160	188	145.6475315	3	49	6	;
	161	180	50.45822583	5	50	6	;
	161	171	48.54917717000001	4	51	6	;
	161	187	196.79896710000003	3	52	6	;
	161	186	52.299100630000005	2	53	6	;
	162	188	48.239508310000005	2	54	6	;
	162	171	49.93510694	8	55	6	;
	162	185	52.299100630000005	2	56	6	;
	163	179	234.0347319	2	57	6	;
	163	185	196.79896710000003	3	58	6	;
	163	174	234.0347319	4	59	6	;
	164	184	145.6475315	3	60	6	;
	164	186	48.239508310000005	2	61	6	;
	164	174	50.026075629999994	4	62	6	;
	165	192	48.85357564	3	63	6	;
	165	174	50.599123399999996	6	64	6	;
	165	190	52.299100630000005	2	65	6	;
	166	184	95.99180565	3	66	6	;
	166	174	50.75697193	5	67	6	;
	166	189	52.299100630000005	2	68	6	;
	166	191	50.0	4	69	6	;
	167	183	49.247906050000005	4	70	6	;
	167	190	50.0	4	71	6	;
	167	192	50.78508436	2	72	6	;
	168	189	48.85357564	3	73	6	;
	168	173	50.91256152	4	74	6	;
	168	191	50.78508436	2	75	6	;
	169	194	259.00200639999997	6	0	7	;
	169	199	234.0347319	4	1	7	;
	170	193	259.00200639999997	6	2	7	;
	170	202	49.58180928	5	3	7	;
	171	210	49.93510694	8	4	7	;
	171	209	48.54917717000001	4	5	7	;
	171	208	135.12001550000002	6	6	7	;
	171	196	100.0	5	7	7	;
	171	205	139.1578842	3	8	7	;
	172	207	48.76508287	4	9	7	;
	172	206	49.0882673	6	10	7	;
	172	195	100.0	5	11	7	;
	172	200	49.0882673	6	12	7	;
	173	216	50.91256152	4	13	7	;
	173	206	259.00200639999997	3	14	7	;
	174	212	50.026075629999994	4	15	7	;
	174	213	50.599123399999996	6	16	7	;
	174	214	50.75697193	5	17	7	;
	174	211	234.0347319	4	18	7	;
	175	193	234.0347319	4	19	7	;
	175	200	171.1052372	4	20	7	;
	175	206	234.0347319	4	21	7	;
	176	201	177.82794099999998	2	22	7	;
	176	199	171.1052372	4	23	7	;
	176	196	49.0882673	6	24	7	;
	177	200	177.82794099999998	2	25	7	;
	177	205	100.0	5	26	7	;
	177	202	49.47995469000001	4	27	7	;
	178	204	48.98587646	2	28	7	;
	178	201	49.47995469000001	4	29	7	;
	178	194	49.58180928	5	30	7	;
	179	204	78.4181131	3	31	7	;
	179	211	234.0347319	2	32	7	;
	180	202	48.98587646	2	33	7	;
	180	203	78.4181131	3	34	7	;
	180	205	50.50193156	10	35	7	;
	180	209	50.45822583	5	36	7	;
	181	201	100.0	5	37	7	;
	181	204	50.50193156	10	38	7	;
	181	195	139.1578842	3	39	7	;
	182	196	49.0882673	6	40	7	;
	182	197	259.00200639999997	3	41	7	;
	182	199	234.0347319	4	42	7	;
	183	196	48.76508287	4	43	7	;
	183	208	51.27526119	5	44	7	;
	183	215	49.247906050000005	4	45	7	;
	184	214	95.99180565	3	46	7	;
	184	195	135.12001550000002	6	47	7	;
	184	207	51.27526119	5	48	7	;
	184	212	145.6475315	3	49	7	;
	185	204	50.45822583	5	50	7	;
	185	195	48.54917717000001	4	51	7	;
	185	211	196.79896710000003	3	52	7	;
	185	210	52.299100630000005	2	53	7	;
	186	212	48.239508310000005	2	54	7	;
	186	195	49.93510694	8	55	7	;
	186	209	52.299100630000005	2	56	7	;
	187	203	234.0347319	2	57	7	;
	187	209	196.79896710000003	3	58	7	;
	187	198	234.0347319	4	59	7	;
	188	208	145.6475315	3	60	7	;
	188	210	48.239508310000005	2	61	7	;
	188	198	50.026075629999994	4	62	7	;
	189	216	48.85357564	3	63	7	;
	189	198	50.599123399999996	6	64	7	;
	189	214	52.299100630000005	2	65	7	;
	190	208	95.99180565	3	66	7	;
	190	198	50.75697193	5	67	7	;
	190	213	52.299100630000005	2	68	7	;
	190	215	50.0	4	69	7	;
	191	207	49.247906050000005	4	70	7	;
	191	214	50.0	4	71	7	;
	191	216	50.78508436	2	72	7	;
	192	213	48.85357564	3	73	7	;
	192	197	50.91256152	4	74	7	;
	192	215	50.78508436	2	75	7	;
	193	218	259.00200639999997	6	0	8	;
	193	223	234.0347319	4	1	8	;
	194	217	259.00200639999997	6	2	8	;
	194	226	49.58180928	5	3	8	;
	195	234	49.93510694	8	4	8	;
	195	233	48.54917717000001	4	5	8	;
	195	232	135.12001550000002	6	6	8	;
	195	220	100.0	5	7	8	;
	195	229	139.1578842	3	8	8	;
	196	231	48.76508287	4	9	8	;
	196	230	49.0882673	6	10	8	;
	196	219	100.0	5	11	8	;
	196	224	49.0882673	6	12	8	;
	197	240	50.91256152	4	13	8	;
	197	230	259.00200639999997	3	14	8	;
	198	236	50.026075629999994	4	15	8	;
	198	237	50.599123399999996	6	16	8	;
	198	238	50.75697193	5	17	8	;
	198	235	234.0347319	4	18	8	;
	199	217	234.0347319	4	19	8	;
	199	224	171.1052372	4	20	8	;
	199	230	234.0347319	4	21	8	;
	200	225	177.82794099999998	2	22	8	;
	200	223	171.1052372	4	23	8	;
	200	220	49.0882673	6	24	8	;
	201	224	177.82794099999998	2	25	8	;
	201	229	100.0	5	26	8	;
	201	226	49.47995469000001	4	27	8	;
	202	228	48.98587646	2	28	8	;
	202	225	49.47995469000001	4	29	8	;
	202	218	49.58180928	5	30	8	;
	203	228	78.4181131	3	31	8	;
	203	235	234.0347319	2	32	8	;
	204	226	48.98587646	2	33	8	;
	204	227	78.4181131	3	34	8	;
	204	229	50.50193156	10	35	8	;
	204	233	50.45822583	5	36	8	;
	205	225	100.0	5	37	8	;
	205	228	50.50193156	10	38	8	;
	205	219	139.1578842	3	39	8	;
	206	220	49.0882673	6	40	8	;
	206	221	259.00200639999997	3	41	8	;
	206	223	234.0347319	4	42	8	;
	207	220	48.76508287	4	43	8	;
	207	232	51.27526119	5	44	8	;
	207	239	49.247906050000005	4	45	8	;
	208	238	95.99180565	3	46	8	;
	208	219	135.12001550000002	6	47	8	;
	208	231	51.27526119	5	48	8	;
	208	236	145.6475315	3	49	8	;
	209	228	50.45822583	5	50	8	;
	209	219	48.54917717000001	4	51	8	;
	209	235	196.79896710000003	3	52	8	;
	209	234	52.299100630000005	2	53	8	;
	210	236	48.239508310000005	2	54	8	;
	210	219	49.93510694	8	55	8	;
	210	233	52.299100630000005	2	56	8	;
	211	227	234.0347319	2	57	8	;
	211	233	196.79896710000003	3	58	8	;
	211	222	234.0347319	4	59	8	;
	212	232	145.6475315	3	60	8	;
	212	234	48.239508310000005	2	61	8	;
	212	222	50.026075629999994	4	62	8	;
	213	240	48.85357564	3	63	8	;
	213	222	50.599123399999996	6	64	8	;
	213	238	52.299100630000005	2	65	8	;
	214	232	95.99180565	3	66	8	;
	214	222	50.75697193	5	67	8	;
	214	237	52.299100630000005	2	68	8	;
	214	239	50.0	4	69	8	;
	215	231	49.247906050000005	4	70	8	;
	215	238	50.0	4	71	8	;
	215	240	50.78508436	2	72	8	;
	216	237	48.85357564	3	73	8	;
	216	221	50.91256152	4	74	8	;
	216	239	50.78508436	2	75	8	;
	217	242	259.00200639999997	6	0	9	;
	217	247	234.0347319	4	1	9	;
	218	241	259.00200639999997	6	2	9	;
	218	250	49.58180928	5	3	9	;
	219	258	49.93510694	8	4	9	;
	219	257	48.54917717000001	4	5	9	;
	219	256	135.12001550000002	6	6	9	;
	219	244	100.0	5	7	9	;
	219	253	139.1578842	3	8	9	;
	220	255	48.76508287	4	9	9	;
	220	254	49.0882673	6	10	9	;
	220	243	100.0	5	11	9	;
	220	248	49.0882673	6	12	9	;
	221	264	50.91256152	4	13	9	;
	221	254	259.00200639999997	3	14	9	;
	222	260	50.026075629999994	4	15	9	;
	222	261	50.599123399999996	6	16	9	;
	222	262	50.75697193	5	17	9	;
	222	259	234.0347319	4	18	9	;
	223	241	234.0347319	4	19	9	;
	223	248	171.1052372	4	20	9	;
	223	254	234.0347319	4	21	9	;
	224	249	177.82794099999998	2	22	9	;
	224	247	171.1052372	4	23	9	;
	224	244	49.0882673	6	24	9	;
	225	248	177.82794099999998	2	25	9	;
	225	253	100.0	5	26	9	;
	225	250	49.47995469000001	4	27	9	;
	226	252	48.98587646	2	28	9	;
	226	249	49.47995469000001	4	29	9	;
	226	242	49.58180928	5	30	9	;
	227	252	78.4181131	3	31	9	;
	227	259	234.0347319	2	32	9	;
	228	250	48.98587646	2	33	9	;
	228	251	78.4181131	3	34	9	;
	228	253	50.50193156	10	35	9	;
	228	257	50.45822583	5	36	9	;
	229	249	100.0	5	37	9	;
	229	252	50.50193156	10	38	9	;
	229	243	139.1578842	3	39	9	;
	230	244	49.0882673	6	40	9	;
	230	245	259.00200639999997	3	41	9	;
	230	247	234.0347319	4	42	9	;
	231	244	48.76508287	4	43	9	;
	231	256	51.27526119	5	44	9	;
	231	263	49.247906050000005	4	45	9	;
	232	262	95.99180565	3	46	9	;
	232	243	135.12001550000002	6	47	9	;
	232	255	51.27526119	5	48	9	;
	232	260	145.6475315	3	49	9	;
	233	252	50.45822583	5	50	9	;
	233	243	48.54917717000001	4	51	9	;
	233	259	196.79896710000003	3	52	9	;
	233	258	52.299100630000005	2	53	9	;
	234	260	48.239508310000005	2	54	9	;
	234	243	49.93510694	8	55	9	;
	234	257	52.299100630000005	2	56	9	;
	235	251	234.0347319	2	57	9	;
	235	257	196.79896710000003	3	58	9	;
	235	246	234.0347319	4	59	9	;
	236	256	145.6475315	3	60	9	;
	236	258	48.239508310000005	2	61	9	;
	236	246	50.026075629999994	4	62	9	;
	237	264	48.85357564	3	63	9	;
	237	246	50.599123399999996	6	64	9	;
	237	262	52.299100630000005	2	65	9	;
	238	256	95.99180565	3	66	9	;
	238	246	50.75697193	5	67	9	;
	238	261	52.299100630000005	2	68	9	;
	238	263	50.0	4	69	9	;
	239	255	49.247906050000005	4	70	9	;
	239	262	50.0	4	71	9	;
	239	264	50.78508436	2	72	9	;
	240	261	48.85357564	3	73	9	;
	240	245	50.91256152	4	74	9	;
	240	263	50.78508436	2	75	9	;
	241	266	259.00200639999997	6	0	10	;
	241	271	234.0347319	4	1	10	;
	242	265	259.00200639999997	6	2	10	;
	242	274	49.58180928	5	3	10	;
	243	282	49.93510694	8	4	10	;
	243	281	48.54917717000001	4	5	10	;
	243	280	135.12001550000002	6	6	10	;
	243	268	100.0	5	7	10	;
	243	277	139.1578842	3	8	10	;
	244	279	48.76508287	4	9	10	;
	244	278	49.0882673	6	10	10	;
	244	267	100.0	5	11	10	;
	244	272	49.0882673	6	12	10	;
	245	288	50.91256152	4	13	10	;
	245	278	259.00200639999997	3	14	10	;
	246	284	50.026075629999994	4	15	10	;
	246	285	50.599123399999996	6	16	10	;
	246	286	50.75697193	5	17	10	;
	246	283	234.0347319	4	18	10	;
	247	265	234.0347319	4	19	10	;
	247	272	171.1052372	4	20	10	;
	247	278	234.0347319	4	21	10	;
	248	273	177.82794099999998	2	22	10	;
	248	271	171.1052372	4	23	10	;
	248	268	49.0882673	6	24	10	;
	249	272	177.82794099999998	2	25	10	;
	249	277	100.0	5	26	10	;
	249	274	49.47995469000001	4	27	10	;
	250	276	48.98587646	2	28	10	;
	250	273	49.47995469000001	4	29	10	;
	250	266	49.58180928	5	30	10	;
	251	276	78.4181131	3	31	10	;
	251	283	234.0347319	2	32	10	;
	252	274	48.98587646	2	33	10	;
	252	275	78.4181131	3	34	10	;
	252	277	50.50193156	10	35	10	;
	252	281	50.45822583	5	36	10	;
	253	273	100.0	5	37	10	;
	253	276	50.50193156	10	38	10	;
	253	267	139.1578842	3	39	10	;
	254	268	49.0882673	6	40	10	;
	254	269	259.00200639999997	3	41	10	;
	254	271	234.0347319	4	42	10	;
	255	268	48.76508287	4	43	10	;
	255	280	51.27526119	5	44	10	;
	255	287	49.247906050000005	4	45	10	;
	256	286	95.99180565	3	46	10	;
	256	267	135.12001550000002	6	47	10	;
	256	279	51.27526119	5	48	10	;
	256	284	145.6475315	3	49	10	;
	257	276	50.45822583	5	50	10	;
	257	267	48.54917717000001	4	51	10	;
	257	283	196.79896710000003	3	52	10	;
	257	282	52.299100630000005	2	53	10	;
	258	284	48.239508310000005	2	54	10	;
	258	267	49.93510694	8	55	10	;
	258	281	52.299100630000005	2	56	10	;
	259	275	234.0347319	2	57	10	;
	259	281	196.79896710000003	3	58	10	;
	259	270	234.0347319	4	59	10	;
	260	280	145.6475315	3	60	10	;
	260	282	48.239508310000005	2	61	10	;
	260	270	50.026075629999994	4	62	10	;
	261	288	48.85357564	3	63	10	;
	261	270	50.599123399999996	6	64	10	;
	261	286	52.299100630000005	2	65	10	;
	262	280	95.99180565	3	66	10	;
	262	270	50.75697193	5	67	10	;
	262	285	52.299100630000005	2	68	10	;
	262	287	50.0	4	69	10	;
	263	279	49.247906050000005	4	70	10	;
	263	286	50.0	4	71	10	;
	263	288	50.78508436	2	72	10	;
	264	285	48.85357564	3	73	10	;
	264	269	50.91256152	4	74	10	;
	264	287	50.78508436	2	75	10	;
	265	290	259.00200639999997	6	0	11	;
	265	295	234.0347319	4	1	11	;
	266	289	259.00200639999997	6	2	11	;
	266	298	49.58180928	5	3	11	;
	267	306	49.93510694	8	4	11	;
	267	305	48.54917717000001	4	5	11	;
	267	304	135.12001550000002	6	6	11	;
	267	292	100.0	5	7	11	;
	267	301	139.1578842	3	8	11	;
	268	303	48.76508287	4	9	11	;
	268	302	49.0882673	6	10	11	;
	268	291	100.0	5	11	11	;
	268	296	49.0882673	6	12	11	;
	269	312	50.91256152	4	13	11	;
	269	302	259.00200639999997	3	14	11	;
	270	308	50.026075629999994	4	15	11	;
	270	309	50.599123399999996	6	16	11	;
	270	310	50.75697193	5	17	11	;
	270	307	234.0347319	4	18	11	;
	271	289	234.0347319	4	19	11	;
	271	296	171.1052372	4	20	11	;
	271	302	234.0347319	4	21	11	;
	272	297	177.82794099999998	2	22	11	;
	272	295	171.1052372	4	23	11	;
	272	292	49.0882673	6	24	11	;
	273	296	177.82794099999998	2	25	11	;
	273	301	100.0	5	26	11	;
	273	298	49.47995469000001	4	27	11	;
	274	300	48.98587646	2	28	11	;
	274	297	49.47995469000001	4	29	11	;
	274	290	49.58180928	5	30	11	;
	275	300	78.4181131	3	31	11	;
	275	307	234.0347319	2	32	11	;
	276	298	48.98587646	2	33	11	;
	276	299	78.4181131	3	34	11	;
	276	301	50.50193156	10	35	11	;
	276	305	50.45822583	5	36	11	;
	277	297	100.0	5	37	11	;
	277	300	50.50193156	10	38	11	;
	277	291	139.1578842	3	39	11	;
	278	292	49.0882673	6	40	11	;
	278	293	259.00200639999997	3	41	11	;
	278	295	234.0347319	4	42	11	;
	279	292	48.76508287	4	43	11	;
	279	304	51.27526119	5	44	11	;
	279	311	49.247906050000005	4	45	11	;
	280	310	95.99180565	3	46	11	;
	280	291	135.12001550000002	6	47	11	;
	280	303	51.27526119	5	48	11	;
	280	308	145.6475315	3	49	11	;
	281	300	50.45822583	5	50	11	;
	281	291	48.54917717000001	4	51	11	;
	281	307	196.79896710000003	3	52	11	;
	281	306	52.299100630000005	2	53	11	;
	282	308	48.239508310000005	2	54	11	;
	282	291	49.93510694	8	55	11	;
	282	305	52.299100630000005	2	56	11	;
	283	299	234.0347319	2	57	11	;
	283	305	196.79896710000003	3	58	11	;
	283	294	234.0347319	4	59	11	;
	284	304	145.6475315	3	60	11	;
	284	306	48.239508310000005	2	61	11	;
	284	294	50.026075629999994	4	62	11	;
	285	312	48.85357564	3	63	11	;
	285	294	50.599123399999996	6	64	11	;
	285	310	52.299100630000005	2	65	11	;
	286	304	95.99180565	3	66	11	;
	286	294	50.75697193	5	67	11	;
	286	309	52.299100630000005	2	68	11	;
	286	311	50.0	4	69	11	;
	287	303	49.247906050000005	4	70	11	;
	287	310	50.0	4	71	11	;
	287	312	50.78508436	2	72	11	;
	288	309	48.85357564	3	73	11	;
	288	293	50.91256152	4	74	11	;
	288	311	50.78508436	2	75	11	;
	289	314	259.00200639999997	6	0	12	;
	289	319	234.0347319	4	1	12	;
	290	313	259.00200639999997	6	2	12	;
	290	322	49.58180928	5	3	12	;
	291	330	49.93510694	8	4	12	;
	291	329	48.54917717000001	4	5	12	;
	291	328	135.12001550000002	6	6	12	;
	291	316	100.0	5	7	12	;
	291	325	139.1578842	3	8	12	;
	292	327	48.76508287	4	9	12	;
	292	326	49.0882673	6	10	12	;
	292	315	100.0	5	11	12	;
	292	320	49.0882673	6	12	12	;
	293	336	50.91256152	4	13	12	;
	293	326	259.00200639999997	3	14	12	;
	294	332	50.026075629999994	4	15	12	;
	294	333	50.599123399999996	6	16	12	;
	294	334	50.75697193	5	17	12	;
	294	331	234.0347319	4	18	12	;
	295	313	234.0347319	4	19	12	;
	295	320	171.1052372	4	20	12	;
	295	326	234.0347319	4	21	12	;
	296	321	177.82794099999998	2	22	12	;
	296	319	171.1052372	4	23	12	;
	296	316	49.0882673	6	24	12	;
	297	320	177.82794099999998	2	25	12	;
	297	325	100.0	5	26	12	;
	297	322	49.47995469000001	4	27	12	;
	298	324	48.98587646	2	28	12	;
	298	321	49.47995469000001	4	29	12	;
	298	314	49.58180928	5	30	12	;
	299	324	78.4181131	3	31	12	;
	299	331	234.0347319	2	32	12	;
	300	322	48.98587646	2	33	12	;
	300	323	78.4181131	3	34	12	;
	300	325	50.50193156	10	35	12	;
	300	329	50.45822583	5	36	12	;
	301	321	100.0	5	37	12	;
	301	324	50.50193156	10	38	12	;
	301	315	139.1578842	3	39	12	;
	302	316	49.0882673	6	40	12	;
	302	317	259.00200639999997	3	41	12	;