<NUMBER OF ZONES> 26
<NUMBER OF NODES> 960
<FIRST THRU NODE> 1
<NUMBER OF LINKS> 2964
<ORIGINAL HEADER> 
<END OF METADATA>


~	init_node	term_node	capacity	free_flow_time	original_link	time	;
	1	26	2590.0200640000003	6	0	0	;
	1	38	2340.347319	4	1	0	;
	2	25	2590.0200640000003	6	2	0	;
	2	39	495.8180928	5	3	0	;
	3	28	1778.27941	2	4	0	;
	3	38	1711.052372	4	5	0	;
	3	30	490.882673	6	6	0	;
	4	27	1778.27941	2	7	0	;
	4	39	494.79954690000005	4	8	0	;
	4	42	1000.0	5	9	0	;
	5	30	1000.0	5	10	0	;
	5	45	499.3510694	8	11	0	;
	5	44	485.4917717000001	4	12	0	;
	5	33	1351.2001550000002	6	13	0	;
	5	42	1391.5788420000001	3	14	0	;
	6	32	487.6508287	4	15	0	;
	6	29	1000.0	5	16	0	;
	6	27	490.882673	6	17	0	;
	6	43	490.882673	6	18	0	;
	7	37	509.1256152	4	19	0	;
	7	43	2590.0200640000003	3	20	0	;
	8	48	492.47906050000006	4	21	0	;
	8	33	512.7526119	5	22	0	;
	8	30	487.6508287	4	23	0	;
	9	47	959.9180565000001	3	24	0	;
	9	34	1456.4753150000001	3	25	0	;
	9	32	512.7526119	5	26	0	;
	9	29	1351.2001550000002	6	27	0	;
	10	33	1456.4753150000001	3	28	0	;
	10	35	500.26075629999997	4	29	0	;
	10	45	482.3950831	2	30	0	;
	11	46	2340.347319	4	31	0	;
	11	34	500.26075629999997	4	32	0	;
	11	36	505.991234	6	33	0	;
	11	47	507.56971930000003	5	34	0	;
	12	35	505.991234	6	35	0	;
	12	47	522.9910063000001	2	36	0	;
	12	37	488.5357564	3	37	0	;
	13	36	488.5357564	3	38	0	;
	13	31	509.1256152	4	39	0	;
	13	48	507.8508436	2	40	0	;
	14	43	2340.347319	4	41	0	;
	14	25	2340.347319	4	42	0	;
	14	27	1711.052372	4	43	0	;
	15	26	495.8180928	5	44	0	;
	15	28	494.79954690000005	4	45	0	;
	15	41	489.85876460000003	2	46	0	;
	16	41	784.181131	3	47	0	;
	16	46	2340.347319	2	48	0	;
	17	44	504.58225830000003	5	49	0	;
	17	39	489.85876460000003	2	50	0	;
	17	40	784.181131	3	51	0	;
	17	42	505.0193156	10	52	0	;
	18	28	1000.0	5	53	0	;
	18	41	505.0193156	10	54	0	;
	18	29	1391.5788420000001	3	55	0	;
	19	38	2340.347319	4	56	0	;
	19	30	490.882673	6	57	0	;
	19	31	2590.0200640000003	3	58	0	;
	20	46	1967.9896710000003	3	59	0	;
	20	45	522.9910063000001	2	60	0	;
	20	29	485.4917717000001	4	61	0	;
	20	41	504.58225830000003	5	62	0	;
	21	34	482.3950831	2	63	0	;
	21	44	522.9910063000001	2	64	0	;
	21	29	499.3510694	8	65	0	;
	22	35	2340.347319	4	66	0	;
	22	44	1967.9896710000003	3	67	0	;
	22	40	2340.347319	2	68	0	;
	23	33	959.9180565000001	3	69	0	;
	23	35	507.56971930000003	5	70	0	;
	23	36	522.9910063000001	2	71	0	;
	23	48	500.0	4	72	0	;
	24	32	492.47906050000006	4	73	0	;
	24	47	500.0	4	74	0	;
	24	37	507.8508436	2	75	0	;
	25	50	2590.0200640000003	6	0	1	;
	25	62	2340.347319	4	1	1	;
	26	49	2590.0200640000003	6	2	1	;
	26	63	495.8180928	5	3	1	;
	27	52	1778.27941	2	4	1	;
	27	62	1711.052372	4	5	1	;
	27	54	490.882673	6	6	1	;
	28	51	1778.27941	2	7	1	;
	28	63	494.79954690000005	4	8	1	;
	28	66	1000.0	5	9	1	;
	29	54	1000.0	5	10	1	;
	29	69	499.3510694	8	11	1	;
	29	68	485.4917717000001	4	12	1	;
	29	57	1351.2001550000002	6	13	1	;
	29	66	1391.5788420000001	3	14	1	;
	30	56	487.6508287	4	15	1	;
	30	53	1000.0	5	16	1	;
	30	51	490.882673	6	17	1	;
	30	67	490.882673	6	18	1	;
	31	61	509.1256152	4	19	1	;
	31	67	2590.0200640000003	3	20	1	;
	32	72	492.47906050000006	4	21	1	;
	32	57	512.7526119	5	22	1	;
	32	54	487.6508287	4	23	1	;
	33	71	959.9180565000001	3	24	1	;
	33	58	1456.4753150000001	3	25	1	;
	33	56	512.7526119	5	26	1	;
	33	53	1351.2001550000002	6	27	1	;
	34	57	1456.4753150000001	3	28	1	;
	34	59	500.26075629999997	4	29	1	;
	34	69	482.3950831	2	30	1	;
	35	70	2340.347319	4	31	1	;
	35	58	500.26075629999997	4	32	1	;
	35	60	505.991234	6	33	1	;
	35	71	507.56971930000003	5	34	1	;
	36	59	505.991234	6	35	1	;
	36	71	522.9910063000001	2	36	1	;
	36	61	488.5357564	3	37	1	;
	37	60	488.5357564	3	38	1	;
	37	55	509.1256152	4	39	1	;
	37	72	507.8508436	2	40	1	;
	38	67	2340.347319	4	41	1	;
	38	49	2340.347319	4	42	1	;
	38	51	1711.052372	4	43	1	;
	39	50	495.8180928	5	44	1	;
	39	52	494.79954690000005	4	45	1	;
	39	65	489.85876460000003	2	46	1	;
	40	65	784.181131	3	47	1	;
	40	70	2340.347319	2	48	1	;
	41	68	504.58225830000003	5	49	1	;
	41	63	489.85876460000003	2	50	1	;
	41	64	784.181131	3	51	1	;
	41	66	505.0193156	10	52	1	;
	42	52	1000.0	5	53	1	;
	42	65	505.0193156	10	54	1	;
	42	53	1391.5788420000001	3	55	1	;
	43	62	2340.347319	4	56	1	;
	43	54	490.882673	6	57	1	;
	43	55	2590.0200640000003	3	58	1	;
	44	70	1967.9896710000003	3	59	1	;
	44	69	522.9910063000001	2	60	1	;
	44	53	485.4917717000001	4	61	1	;
	44	65	504.58225830000003	5	62	1	;
	45	58	482.3950831	2	63	1	;
	45	68	522.9910063000001	2	64	1	;
	45	53	499.3510694	8	65	1	;
	46	59	2340.347319	4	66	1	;
	46	68	1967.9896710000003	3	67	1	;
	46	64	2340.347319	2	68	1	;
	47	57	959.9180565000001	3	69	1	;
	47	59	507.56971930000003	5	70	1	;
	47	60	522.9910063000001	2	71	1	;
	47	72	500.0	4	72	1	;
	48	56	492.47906050000006	4	73	1	;
	48	71	500.0	4	74	1	;
	48	61	507.8508436	2	75	1	;
	49	74	2590.0200640000003	6	0	2	;
	49	86	2340.347319	4	1	2	;
	50	73	2590.0200640000003	6	2	2	;
	50	87	495.8180928	5	3	2	;
	51	76	1778.27941	2	4	2	;
	51	86	1711.052372	4	5	2	;
	51	78	490.882673	6	6	2	;
	52	75	1778.27941	2	7	2	;
	52	87	494.79954690000005	4	8	2	;
	52	90	1000.0	5	9	2	;
	53	78	1000.0	5	10	2	;
	53	93	499.3510694	8	11	2	;
	53	92	485.4917717000001	4	12	2	;
	53	81	1351.2001550000002	6	13	2	;
	53	90	1391.5788420000001	3	14	2	;
	54	80	487.6508287	4	15	2	;
	54	77	1000.0	5	16	2	;
	54	75	490.882673	6	17	2	;
	54	91	490.882673	6	18	2	;
	55	85	509.1256152	4	19	2	;
	55	91	2590.0200640000003	3	20	2	;
	56	96	492.47906050000006	4	21	2	;
	56	81	512.7526119	5	22	2	;
	56	78	487.6508287	4	23	2	;
	57	95	959.9180565000001	3	24	2	;
	57	82	1456.4753150000001	3	25	2	;
	57	80	512.7526119	5	26	2	;
	57	77	1351.2001550000002	6	27	2	;
	58	81	1456.4753150000001	3	28	2	;
	58	83	500.26075629999997	4	29	2	;
	58	93	482.3950831	2	30	2	;
	59	94	2340.347319	4	31	2	;
	59	82	500.26075629999997	4	32	2	;
	59	84	505.991234	6	33	2	;
	59	95	507.56971930000003	5	34	2	;
	60	83	505.991234	6	35	2	;
	60	95	522.9910063000001	2	36	2	;
	60	85	488.5357564	3	37	2	;
	61	84	488.5357564	3	38	2	;
	61	79	509.1256152	4	39	2	;
	61	96	507.8508436	2	40	2	;
	62	91	2340.347319	4	41	2	;
	62	73	2340.347319	4	42	2	;
	62	75	1711.052372	4	43	2	;
	63	74	495.8180928	5	44	2	;
	63	76	494.79954690000005	4	45	2	;
	63	89	489.85876460000003	2	46	2	;
	64	89	784.181131	3	47	2	;
	64	94	2340.347319	2	48	2	;
	65	92	504.58225830000003	5	49	2	;
	65	87	489.85876460000003	2	50	2	;
	65	88	784.181131	3	51	2	;
	65	90	505.0193156	10	52	2	;
	66	76	1000.0	5	53	2	;
	66	89	505.0193156	10	54	2	;
	66	77	1391.5788420000001	3	55	2	;
	67	86	2340.347319	4	56	2	;
	67	78	490.882673	6	57	2	;
	67	79	2590.0200640000003	3	58	2	;
	68	94	1967.9896710000003	3	59	2	;
	68	93	522.9910063000001	2	60	2	;
	68	77	485.4917717000001	4	61	2	;
	68	89	504.58225830000003	5	62	2	;
	69	82	482.3950831	2	63	2	;
	69	92	522.9910063000001	2	64	2	;
	69	77	499.3510694	8	65	2	;
	70	83	2340.347319	4	66	2	;
	70	92	1967.9896710000003	3	67	2	;
	70	88	2340.347319	2	68	2	;
	71	81	959.9180565000001	3	69	2	;
	71	83	507.56971930000003	5	70	2	;
	71	84	522.9910063000001	2	71	2	;
	71	96	500.0	4	72	2	;
	72	80	492.47906050000006	4	73	2	;
	72	95	500.0	4	74	2	;
	72	85	507.8508436	2	75	2	;
	73	98	2590.0200640000003	6	0	3	;
	73	110	2340.347319	4	1	3	;
	74	97	2590.0200640000003	6	2	3	;
	74	111	495.8180928	5	3	3	;
	75	100	1778.27941	2	4	3	;
	75	110	1711.052372	4	5	3	;
	75	102	490.882673	6	6	3	;
	76	99	1778.27941	2	7	3	;
	76	111	494.79954690000005	4	8	3	;
	76	114	1000.0	5	9	3	;
	77	102	1000.0	5	10	3	;
	77	117	499.3510694	8	11	3	;
	77	116	485.4917717000001	4	12	3	;
	77	105	1351.2001550000002	6	13	3	;
	77	114	1391.5788420000001	3	14	3	;
	78	104	487.6508287	4	15	3	;
	78	101	1000.0	5	16	3	;
	78	99	490.882673	6	17	3	;
	78	115	490.882673	6	18	3	;
	79	109	509.1256152	4	19	3	;
	79	115	2590.0200640000003	3	20	3	;
	80	120	492.47906050000006	4	21	3	;
	80	105	512.7526119	5	22	3	;
	80	102	487.6508287	4	23	3	;
	81	119	959.9180565000001	3	24	3	;
	81	106	1456.4753150000001	3	25	3	;
	81	104	512.7526119	5	26	3	;
	81	101	1351.2001550000002	6	27	3	;
	82	105	1456.4753150000001	3	28	3	;
	82	107	500.26075629999997	4	29	3	;
	82	117	482.3950831	2	30	3	;
	83	118	2340.347319	4	31	3	;
	83	106	500.26075629999997	4	32	3	;
	83	108	505.991234	6	33	3	;
	83	119	507.56971930000003	5	34	3	;
	84	107	505.991234	6	35	3	;
	84	119	522.9910063000001	2	36	3	;
	84	109	488.5357564	3	37	3	;
	85	108	488.5357564	3	38	3	;
	85	103	509.1256152	4	39	3	;
	85	120	507.8508436	2	40	3	;
	86	115	2340.347319	4	41	3	;
	86	97	2340.347319	4	42	3	;
	86	99	1711.052372	4	43	3	;
	87	98	495.8180928	5	44	3	;
	87	100	494.79954690000005	4	45	3	;
	87	113	489.85876460000003	2	46	3	;
	88	113	784.181131	3	47	3	;
	88	118	2340.347319	2	48	3	;
	89	116	504.58225830000003	5	49	3	;
	89	111	489.85876460000003	2	50	3	;
	89	112	784.181131	3	51	3	;
	89	114	505.0193156	10	52	3	;
	90	100	1000.0	5	53	3	;
	90	113	505.0193156	10	54	3	;
	90	101	1391.5788420000001	3	55	3	;
	91	110	2340.347319	4	56	3	;
	91	102	490.882673	6	57	3	;
	91	103	2590.0200640000003	3	58	3	;
	92	118	1967.9896710000003	3	59	3	;
	92	117	522.9910063000001	2	60	3	;
	92	101	485.4917717000001	4	61	3	;
	92	113	504.58225830000003	5	62	3	;
	93	106	482.3950831	2	63	3	;
	93	116	522.9910063000001	2	64	3	;
	93	101	499.3510694	8	65	3	;
	94	107	2340.347319	4	66	3	;
	94	116	1967.9896710000003	3	67	3	;
	94	112	2340.347319	2	68	3	;
	95	105	959.9180565000001	3	69	3	;
	95	107	507.56971930000003	5	70	3	;
	95	108	522.9910063000001	2	71	3	;
	95	120	500.0	4	72	3	;
	96	104	492.47906050000006	4	73	3	;
	96	119	500.0	4	74	3	;
	96	109	507.8508436	2	75	3	;
	97	122	2590.0200640000003	6	0	4	;
	97	134	2340.347319	4	1	4	;
	98	121	2590.0200640000003	6	2	4	;
	98	135	495.8180928	5	3	4	;
	99	124	1778.27941	2	4	4	;
	99	134	1711.052372	4	5	4	;
	99	126	490.882673	6	6	4	;
	100	123	1778.27941	2	7	4	;
	100	135	494.79954690000005	4	8	4	;
	100	138	1000.0	5	9	4	;
	101	126	1000.0	5	10	4	;
	101	141	499.3510694	8	11	4	;
	101	140	485.4917717000001	4	12	4	;
	101	129	1351.2001550000002	6	13	4	;
	101	138	1391.5788420000001	3	14	4	;
	102	128	487.6508287	4	15	4	;
	102	125	1000.0	5	16	4	;
	102	123	490.882673	6	17	4	;
	102	139	490.882673	6	18	4	;
	103	133	509.1256152	4	19	4	;
	103	139	2590.0200640000003	3	20	4	;
	104	144	492.47906050000006	4	21	4	;
	104	129	512.7526119	5	22	4	;
	104	126	487.6508287	4	23	4	;
	105	143	959.9180565000001	3	24	4	;
	105	130	1456.4753150000001	3	25	4	;
	105	128	512.7526119	5	26	4	;
	105	125	1351.2001550000002	6	27	4	;
	106	129	1456.4753150000001	3	28	4	;
	106	131	500.26075629999997	4	29	4	;
	106	141	482.3950831	2	30	4	;
	107	142	2340.347319	4	31	4	;
	107	130	500.26075629999997	4	32	4	;
	107	132	505.991234	6	33	4	;
	107	143	507.56971930000003	5	34	4	;
	108	131	505.991234	6	35	4	;
	108	143	522.9910063000001	2	36	4	;
	108	133	488.5357564	3	37	4	;
	109	132	488.5357564	3	38	4	;
	109	127	509.1256152	4	39	4	;
	109	144	507.8508436	2	40	4	;
	110	139	2340.347319	4	41	4	;
	110	121	2340.347319	4	42	4	;
	110	123	1711.052372	4	43	4	;
	111	122	495.8180928	5	44	4	;
	111	124	494.79954690000005	4	45	4	;
	111	137	489.85876460000003	2	46	4	;
	112	137	784.181131	3	47	4	;
	112	142	2340.347319	2	48	4	;
	113	140	504.58225830000003	5	49	4	;
	113	135	489.85876460000003	2	50	4	;
	113	136	784.181131	3	51	4	;
	113	138	505.0193156	10	52	4	;
	114	124	1000.0	5	53	4	;
	114	137	505.0193156	10	54	4	;
	114	125	1391.5788420000001	3	55	4	;
	115	134	2340.347319	4	56	4	;
	115	126	490.882673	6	57	4	;
	115	127	2590.0200640000003	3	58	4	;
	116	142	1967.9896710000003	3	59	4	;
	116	141	522.9910063000001	2	60	4	;
	116	125	485.4917717000001	4	61	4	;
	116	137	504.58225830000003	5	62	4	;
	117	130	482.3950831	2	63	4	;
	117	140	522.9910063000001	2	64	4	;
	117	125	499.3510694	8	65	4	;
	118	131	2340.347319	4	66	4	;
	118	140	1967.9896710000003	3	67	4	;
	118	136	2340.347319	2	68	4	;
	119	129	959.9180565000001	3	69	4	;
	119	131	507.56971930000003	5	70	4	;
	119	132	522.9910063000001	2	71	4	;
	119	144	500.0	4	72	4	;
	120	128	492.47906050000006	4	73	4	;
	120	143	500.0	4	74	4	;
	120	133	507.8508436	2	75	4	;
	121	146	2590.0200640000003	6	0	5	;
	121	158	2340.347319	4	1	5	;
	122	145	2590.0200640000003	6	2	5	;
	122	159	495.8180928	5	3	5	;
	123	148	1778.27941	2	4	5	;
	123	158	1711.052372	4	5	5	;
	123	150	490.882673	6	6	5	;
	124	147	1778.27941	2	7	5	;
	124	159	494.79954690000005	4	8	5	;
	124	162	1000.0	5	9	5	;
	125	150	1000.0	5	10	5	;
	125	165	499.3510694	8	11	5	;
	125	164	485.4917717000001	4	12	5	;
	125	153	1351.2001550000002	6	13	5	;
	125	162	1391.5788420000001	3	14	5	;
	126	152	487.6508287	4	15	5	;
	126	149	1000.0	5	16	5	;
	126	147	490.882673	6	17	5	;
	126	163	490.882673	6	18	5	;
	127	157	509.1256152	4	19	5	;
	127	163	2590.0200640000003	3	20	5	;
	128	168	492.47906050000006	4	21	5	;
	128	153	512.7526119	5	22	5	;
	128	150	487.6508287	4	23	5	;
	129	167	959.9180565000001	3	24	5	;
	129	154	1456.4753150000001	3	25	5	;
	129	152	512.7526119	5	26	5	;
	129	149	1351.2001550000002	6	27	5	;
	130	153	1456.4753150000001	3	28	5	;
	130	155	500.26075629999997	4	29	5	;
	130	165	482.3950831	2	30	5	;
	131	166	2340.347319	4	31	5	;
	131	154	500.26075629999997	4	32	5	;
	131	156	505.991234	6	33	5	;
	131	167	507.56971930000003	5	34	5	;
	132	155	505.991234	6	35	5	;
	132	167	522.9910063000001	2	36	5	;
	132	157	488.5357564	3	37	5	;
	133	156	488.5357564	3	38	5	;
	133	151	509.1256152	4	39	5	;
	133	168	507.8508436	2	40	5	;
	134	163	2340.347319	4	41	5	;
	134	145	2340.347319	4	42	5	;
	134	147	1711.052372	4	43	5	;
	135	146	495.8180928	5	44	5	;
	135	148	494.79954690000005	4	45	5	;
	135	161	489.85876460000003	2	46	5	;
	136	161	784.181131	3	47	5	;
	136	166	2340.347319	2	48	5	;
	137	164	504.58225830000003	5	49	5	;
	137	159	489.85876460000003	2	50	5	;
	137	160	784.181131	3	51	5	;
	137	162	505.0193156	10	52	5	;
	138	148	1000.0	5	53	5	;
	138	161	505.0193156	10	54	5	;
	138	149	1391.5788420000001	3	55	5	;
	139	158	2340.347319	4	56	5	;
	139	150	490.882673	6	57	5	;
	139	151	2590.0200640000003	3	58	5	;
	140	166	1967.9896710000003	3	59	5	;
	140	165	522.9910063000001	2	60	5	;
	140	149	485.4917717000001	4	61	5	;
	140	161	504.58225830000003	5	62	5	;
	141	154	482.3950831	2	63	5	;
	141	164	522.9910063000001	2	64	5	;
	141	149	499.3510694	8	65	5	;
	142	155	2340.347319	4	66	5	;
	142	164	1967.9896710000003	3	67	5	;
	142	160	2340.347319	2	68	5	;
	143	153	959.9180565000001	3	69	5	;
	143	155	507.56971930000003	5	70	5	;
	143	156	522.9910063000001	2	71	5	;
	143	168	500.0	4	72	5	;
	144	152	492.47906050000006	4	73	5	;
	144	167	500.0	4	74	5	;
	144	157	507.8508436	2	75	5	;
	145	170	2590.0200640000003	6	0	6	;
	145	182	2340.347319	4	1	6	;
	146	169	2590.0200640000003	6	2	6	;
	146	183	495.8180928	5	3	6	;
	147	172	1778.27941	2	4	6	;
	147	182	1711.052372	4	5	6	;
	147	174	490.882673	6	6	6	;
	148	171	1778.27941	2	7	6	;
	148	183	494.79954690000005	4	8	6	;
	148	186	1000.0	5	9	6	;
	149	174	1000.0	5	10	6	;
	149	189	499.3510694	8	11	6	;
	149	188	485.4917717000001	4	12	6	;
	149	177	1351.2001550000002	6	13	6	;
	149	186	1391.5788420000001	3	14	6	;
	150	176	487.6508287	4	15	6	;
	150	173	1000.0	5	16	6	;
	150	171	490.882673	6	17	6	;
	150	187	490.882673	6	18	6	;
	151	181	509.1256152	4	19	6	;
	151	187	2590.0200640000003	3	20	6	;
	152	192	492.47906050000006	4	21	6	;
	152	177	512.7526119	5	22	6	;
	152	174	487.6508287	4	23	6	;
	153	191	959.9180565000001	3	24	6	;
	153	178	1456.4753150000001	3	25	6	;
	153	176	512.7526119	5	26	6	;
	153	173	1351.2001550000002	6	27	6	;
	154	177	1456.4753150000001	3	28	6	;
	154	179	500.26075629999997	4	29	6	;
	154	189	482.3950831	2	30	6	;
	155	190	2340.347319	4	31	6	;
	155	178	500.26075629999997	4	32	6	;
	155	180	505.991234	6	33	6	;
	155	191	507.56971930000003	5	34	6	;
	156	179	505.991234	6	35	6	;
	156	191	522.9910063000001	2	36	6	;
	156	181	488.5357564	3	37	6	;
	157	180	488.5357564	3	38	6	;
	157	175	509.1256152	4	39	6	;
	157	192	507.8508436	2	40	6	;
	158	187	2340.347319	4	41	6	;
	158	169	2340.347319	4	42	6	;
	158	171	1711.052372	4	43	6	;
	159	170	495.8180928	5	44	6	;
	159	172	494.79954690000005	4	45	6	;
	159	185	489.85876460000003	2	46	6	;
	160	185	784.181131	3	47	6	;
	160	190	2340.347319	2	48	6	;
	161	188	504.58225830000003	5	49	6	;
	161	183	489.85876460000003	2	50	6	;
	161	184	784.181131	3	51	6	;
	161	186	505.0193156	10	52	6	;
	162	172	1000.0	5	53	6	;
	162	185	505.0193156	10	54	6	;
	162	173	1391.5788420000001	3	55	6	;
	163	182	2340.347319	4	56	6	;
	163	174	490.882673	6	57	6	;
	163	175	2590.0200640000003	3	58	6	;
	164	190	1967.9896710000003	3	59	6	;
	164	189	522.9910063000001	2	60	6	;
	164	173	485.4917717000001	4	61	6	;
	164	185	504.58225830000003	5	62	6	;
	165	178	482.3950831	2	63	6	;
	165	188	522.9910063000001	2	64	6	;
	165	173	499.3510694	8	65	6	;
	166	179	2340.347319	4	66	6	;
	166	188	1967.9896710000003	3	67	6	;
	166	184	2340.347319	2	68	6	;
	167	177	959.9180565000001	3	69	6	;
	167	179	507.56971930000003	5	70	6	;
	167	180	522.9910063000001	2	71	6	;
	167	192	500.0	4	72	6	;
	168	176	492.47906050000006	4	73	6	;
	168	191	500.0	4	74	6	;
	168	181	507.8508436	2	75	6	;
	169	194	2590.0200640000003	6	0	7	;
	169	206	2340.347319	4	1	7	;
	170	193	2590.0200640000003	6	2	7	;
	170	207	495.8180928	5	3	7	;
	171	196	1778.27941	2	4	7	;
	171	206	1711.052372	4	5	7	;
	171	198	490.882673	6	6	7	;
	172	195	1778.27941	2	7	7	;
	172	207	494.79954690000005	4	8	7	;
	172	210	1000.0	5	9	7	;
	173	198	1000.0	5	10	7	;
	173	213	499.3510694	8	11	7	;
	173	212	485.4917717000001	4	12	7	;
	173	201	1351.2001550000002	6	13	7	;
	173	210	1391.5788420000001	3	14	7	;
	174	200	487.6508287	4	15	7	;
	174	197	1000.0	5	16	7	;
	174	195	490.882673	6	17	7	;
	174	211	490.882673	6	18	7	;
	175	205	509.1256152	4	19	7	;
	175	211	2590.0200640000003	3	20	7	;
	176	216	492.47906050000006	4	21	7	;
	176	201	512.7526119	5	22	7	;
	176	198	487.6508287	4	23	7	;
	177	215	959.9180565000001	3	24	7	;
	177	202	1456.4753150000001	3	25	7	;
	177	200	512.7526119	5	26	7	;
	177	197	1351.2001550000002	6	27	7	;
	178	201	1456.4753150000001	3	28	7	;
	178	203	500.26075629999997	4	29	7	;
	178	213	482.3950831	2	30	7	;
	179	214	2340.347319	4	31	7	;
	179	202	500.26075629999997	4	32	7	;
	179	204	505.991234	6	33	7	;
	179	215	507.56971930000003	5	34	7	;
	180	203	505.991234	6	35	7	;
	180	215	522.9910063000001	2	36	7	;
	180	205	488.5357564	3	37	7	;
	181	204	488.5357564	3	38	7	;
	181	199	509.1256152	4	39	7	;
	181	216	507.8508436	2	40	7	;
	182	211	2340.347319	4	41	7	;
	182	193	2340.347319	4	42	7	;
	182	195	1711.052372	4	43	7	;
	183	194	495.8180928	5	44	7	;
	183	196	494.79954690000005	4	45	7	;
	183	209	489.85876460000003	2	46	7	;
	184	209	784.181131	3	47	7	;
	184	214	2340.347319	2	48	7	;
	185	212	504.58225830000003	5	49	7	;
	185	207	489.85876460000003	2	50	7	;
	185	208	784.181131	3	51	7	;
	185	210	505.0193156	10	52	7	;
	186	196	1000.0	5	53	7	;
	186	209	505.0193156	10	54	7	;
	186	197	1391.5788420000001	3	55	7	;
	187	206	2340.347319	4	56	7	;
	187	198	490.882673	6	57	7	;
	187	199	2590.0200640000003	3	58	7	;
	188	214	1967.9896710000003	3	59	7	;
	188	213	522.9910063000001	2	60	7	;
	188	197	485.4917717000001	4	61	7	;
	188	209	504.58225830000003	5	62	7	;
	189	202	482.3950831	2	63	7	;
	189	212	522.9910063000001	2	64	7	;
	189	197	499.3510694	8	65	7	;
	190	203	2340.347319	4	66	7	;
	190	212	1967.9896710000003	3	67	7	;
	190	208	2340.347319	2	68	7	;
	191	201	959.9180565000001	3	69	7	;
	191	203	507.56971930000003	5	70	7	;
	191	204	522.9910063000001	2	71	7	;
	191	216	500.0	4	72	7	;
	192	200	492.47906050000006	4	73	7	;
	192	215	500.0	4	74	7	;
	192	205	507.8508436	2	75	7	;
	193	218	2590.0200640000003	6	0	8	;
	193	230	2340.347319	4	1	8	;
	194	217	2590.0200640000003	6	2	8	;
	194	231	495.8180928	5	3	8	;
	195	220	1778.27941	2	4	8	;
	195	230	1711.052372	4	5	8	;
	195	222	490.882673	6	6	8	;
	196	219	1778.27941	2	7	8	;
	196	231	494.79954690000005	4	8	8	;
	196	234	1000.0	5	9	8	;
	197	222	1000.0	5	10	8	;
	197	237	499.3510694	8	11	8	;
	197	236	485.4917717000001	4	12	8	;
	197	225	1351.2001550000002	6	13	8	;
	197	234	1391.5788420000001	3	14	8	;
	198	224	487.6508287	4	15	8	;
	198	221	1000.0	5	16	8	;
	198	219	490.882673	6	17	8	;
	198	235	490.882673	6	18	8	;
	199	229	509.1256152	4	19	8	;
	199	235	2590.0200640000003	3	20	8	;
	200	240	492.47906050000006	4	21	8	;
	200	225	512.7526119	5	22	8	;
	200	222	487.6508287	4	23	8	;
	201	239	959.9180565000001	3	24	8	;
	201	226	1456.4753150000001	3	25	8	;
	201	224	512.7526119	5	26	8	;
	201	221	1351.2001550000002	6	27	8	;
	202	225	1456.4753150000001	3	28	8	;
	202	227	500.26075629999997	4	29	8	;
	202	237	482.3950831	2	30	8	;
	203	238	2340.347319	4	31	8	;
	203	226	500.26075629999997	4	32	8	;
	203	228	505.991234	6	33	8	;
	203	239	507.56971930000003	5	34	8	;
	204	227	505.991234	6	35	8	;
	204	239	522.9910063000001	2	36	8	;
	204	229	488.5357564	3	37	8	;
	205	228	488.5357564	3	38	8	;
	205	223	509.1256152	4	39	8	;
	205	240	507.8508436	2	40	8	;
	206	235	2340.347319	4	41	8	;
	206	217	2340.347319	4	42	8	;
	206	219	1711.052372	4	43	8	;
	207	218	495.8180928	5	44	8	;
	207	220	494.79954690000005	4	45	8	;
	207	233	489.85876460000003	2	46	8	;
	208	233	784.181131	3	47	8	;
	208	238	2340.347319	2	48	8	;
	209	236	504.58225830000003	5	49	8	;
	209	231	489.85876460000003	2	50	8	;
	209	232	784.181131	3	51	8	;
	209	234	505.0193156	10	52	8	;
	210	220	1000.0	5	53	8	;
	210	233	505.0193156	10	54	8	;
	210	221	1391.5788420000001	3	55	8	;
	211	230	2340.347319	4	56	8	;
	211	222	490.882673	6	57	8	;
	211	223	2590.0200640000003	3	58	8	;
	212	238	1967.9896710000003	3	59	8	;
	212	237	522.9910063000001	2	60	8	;
	212	221	485.4917717000001	4	61	8	;
	212	233	504.58225830000003	5	62	8	;
	213	226	482.3950831	2	63	8	;
	213	236	522.9910063000001	2	64	8	;
	213	221	499.3510694	8	65	8	;
	214	227	2340.347319	4	66	8	;
	214	236	1967.9896710000003	3	67	8	;
	214	232	2340.347319	2	68	8	;
	215	225	959.9180565000001	3	69	8	;
	215	227	507.56971930000003	5	70	8	;
	215	228	522.9910063000001	2	71	8	;
	215	240	500.0	4	72	8	;
	216	224	492.47906050000006	4	73	8	;
	216	239	500.0	4	74	8	;
	216	229	507.8508436	2	75	8	;
	217	242	2590.0200640000003	6	0	9	;
	217	254	2340.347319	4	1	9	;
	218	241	2590.0200640000003	6	2	9	;
	218	255	495.8180928	5	3	9	;
	219	244	1778.27941	2	4	9	;
	219	254	1711.052372	4	5	9	;
	219	246	490.882673	6	6	9	;
	220	243	1778.27941	2	7	9	;
	220	255	494.79954690000005	4	8	9	;
	220	258	1000.0	5	9	9	;
	221	246	1000.0	5	10	9	;
	221	261	499.3510694	8	11	9	;
	221	260	485.4917717000001	4	12	9	;
	221	249	1351.2001550000002	6	13	9	;
	221	258	1391.5788420000001	3	14	9	;
	222	248	487.6508287	4	15	9	;
	222	245	1000.0	5	16	9	;
	222	243	490.882673	6	17	9	;
	222	259	490.882673	6	18	9	;
	223	253	509.1256152	4	19	9	;
	223	259	2590.0200640000003	3	20	9	;
	224	264	492.47906050000006	4	21	9	;
	224	249	512.7526119	5	22	9	;
	224	246	487.6508287	4	23	9	;
	225	263	959.9180565000001	3	24	9	;
	225	250	1456.4753150000001	3	25	9	;
	225	248	512.7526119	5	26	9	;
	225	245	1351.2001550000002	6	27	9	;
	226	249	1456.4753150000001	3	28	9	;
	226	251	500.26075629999997	4	29	9	;
	226	261	482.3950831	2	30	9	;
	227	262	2340.347319	4	31	9	;
	227	250	500.26075629999997	4	32	9	;
	227	252	505.991234	6	33	9	;
	227	263	507.56971930000003	5	34	9	;
	228	251	505.991234	6	35	9	;
	228	263	522.9910063000001	2	36	9	;
	228	253	488.5357564	3	37	9	;
	229	252	488.5357564	3	38	9	;
	229	247	509.1256152	4	39	9	;
	229	264	507.8508436	2	40	9	;
	230	259	2340.347319	4	41	9	;
	230	241	2340.347319	4	42	9	;
	230	243	1711.052372	4	43	9	;
	231	242	495.8180928	5	44	9	;
	231	244	494.79954690000005	4	45	9	;
	231	257	489.85876460000003	2	46	9	;
	232	257	784.181131	3	47	9	;
	232	262	2340.347319	2	48	9	;
	233	260	504.58225830000003	5	49	9	;
	233	255	489.85876460000003	2	50	9	;
	233	256	784.181131	3	51	9	;
	233	258	505.0193156	10	52	9	;
	234	244	1000.0	5	53	9	;
	234	257	505.0193156	10	54	9	;
	234	245	1391.5788420000001	3	55	9	;
	235	254	2340.347319	4	56	9	;
	235	246	490.882673	6	57	9	;
	235	247	2590.0200640000003	3	58	9	;
	236	262	1967.9896710000003	3	59	9	;
	236	261	522.9910063000001	2	60	9	;
	236	245	485.4917717000001	4	61	9	;
	236	257	504.58225830000003	5	62	9	;
	237	250	482.3950831	2	63	9	;
	237	260	522.9910063000001	2	64	9	;
	237	245	499.3510694	8	65	9	;
	238	251	2340.347319	4	66	9	;
	238	260	1967.9896710000003	3	67	9	;
	238	256	2340.347319	2	68	9	;
	239	249	959.9180565000001	3	69	9	;
	239	251	507.56971930000003	5	70	9	;
	239	252	522.9910063000001	2	71	9	;
	239	264	500.0	4	72	9	;
	240	248	492.47906050000006	4	73	9	;
	240	263	500.0	4	74	9	;
	240	253	507.8508436	2	75	9	;
	241	266	2590.0200640000003	6	0	10	;
	241	278	2340.347319	4	1	10	;
	242	265	2590.0200640000003	6	2	10	;
	242	279	495.8180928	5	3	10	;
	243	268	1778.27941	2	4	10	;
	243	278	1711.052372	4	5	10	;
	243	270	490.882673	6	6	10	;
	244	267	1778.27941	2	7	10	;
	244	279	494.79954690000005	4	8	10	;
	244	282	1000.0	5	9	10	;
	245	270	1000.0	5	10	10	;
	245	285	499.3510694	8	11	10	;
	245	284	485.4917717000001	4	12	10	;
	245	273	1351.2001550000002	6	13	10	;
	245	282	1391.5788420000001	3	14	10	;
	246	272	487.6508287	4	15	10	;
	246	269	1000.0	5	16	10	;
	246	267	490.882673	6	17	10	;
	246	283	490.882673	6	18	10	;
	247	277	509.1256152	4	19	10	;
	247	283	2590.0200640000003	3	20	10	;
	248	288	492.47906050000006	4	21	10	;
	248	273	512.7526119	5	22	10	;
	248	270	487.6508287	4	23	10	;
	249	287	959.9180565000001	3	24	10	;
	249	274	1456.4753150000001	3	25	10	;
	249	272	512.7526119	5	26	10	;
	249	269	1351.2001550000002	6	27	10	;
	250	273	1456.4753150000001	3	28	10	;
	250	275	500.26075629999997	4	29	10	;
	250	285	482.3950831	2	30	10	;
	251	286	2340.347319	4	31	10	;
	251	274	500.26075629999997	4	32	10	;
	251	276	505.991234	6	33	10	;
	251	287	507.56971930000003	5	34	10	;
	252	275	505.991234	6	35	10	;
	252	287	522.9910063000001	2	36	10	;
	252	277	488.5357564	3	37	10	;
	253	276	488.5357564	3	38	10	;
	253	271	509.1256152	4	39	10	;
	253	288	507.8508436	2	40	10	;
	254	283	2340.347319	4	41	10	;
	254	265	2340.347319	4	42	10	;
	254	267	1711.052372	4	43	10	;
	255	266	495.8180928	5	44	10	;
	255	268	494.79954690000005	4	45	10	;
	255	281	489.85876460000003	2	46	10	;
	256	281	784.181131	3	47	10	;
	256	286	2340.347319	2	48	10	;
	257	284	504.58225830000003	5	49	10	;
	257	279	489.85876460000003	2	50	10	;
	257	280	784.181131	3	51	10	;
	257	282	505.0193156	10	52	10	;
	258	268	1000.0	5	53	10	;
	258	281	505.0193156	10	54	10	;
	258	269	1391.5788420000001	3	55	10	;
	259	278	2340.347319	4	56	10	;
	259	270	490.882673	6	57	10	;
	259	271	2590.0200640000003	3	58	10	;
	260	286	1967.9896710000003	3	59	10	;
	260	285	522.9910063000001	2	60	10	;
	260	269	485.4917717000001	4	61	10	;
	260	281	504.58225830000003	5	62	10	;
	261	274	482.3950831	2	63	10	;
	261	284	522.9910063000001	2	64	10	;
	261	269	499.3510694	8	65	10	;
	262	275	2340.347319	4	66	10	;
	262	284	1967.9896710000003	3	67	10	;
	262	280	2340.347319	2	68	10	;
	263	273	959.9180565000001	3	69	10	;
	263	275	507.56971930000003	5	70	10	;
	263	276	522.9910063000001	2	71	10	;
	263	288	500.0	4	72	10	;
	264	272	492.47906050000006	4	73	10	;
	264	287	500.0	4	74	10	;
	264	277	507.8508436	2	75	10	;
	265	290	2590.0200640000003	6	0	11	;
	265	302	2340.347319	4	1	11	;
	266	289	2590.0200640000003	6	2	11	;
	266	303	495.8180928	5	3	11	;
	267	292	1778.27941	2	4	11	;
	267	302	1711.052372	4	5	11	;
	267	294	490.882673	6	6	11	;
	268	291	1778.27941	2	7	11	;
	268	303	494.79954690000005	4	8	11	;
	268	306	1000.0	5	9	11	;
	269	294	1000.0	5	10	11	;
	269	309	499.3510694	8	11	11	;
	269	308	485.4917717000001	4	12	11	;
	269	297	1351.2001550000002	6	13	11	;
	269	306	1391.5788420000001	3	14	11	;
	270	296	487.6508287	4	15	11	;
	270	293	1000.0	5	16	11	;
	270	291	490.882673	6	17	11	;
	270	307	490.882673	6	18	11	;
	271	301	509.1256152	4	19	11	;
	271	307	2590.0200640000003	3	20	11	;
	272	312	492.47906050000006	4	21	11	;
	272	297	512.7526119	5	22	11	;
	272	294	487.6508287	4	23	11	;
	273	311	959.9180565000001	3	24	11	;
	273	298	1456.4753150000001	3	25	11	;
	273	296	512.7526119	5	26	11	;
	273	293	1351.2001550000002	6	27	11	;
	274	297	1456.4753150000001	3	28	11	;
	274	299	500.26075629999997	4	29	11	;
	274	309	482.3950831	2	30	11	;
	275	310	2340.347319	4	31	11	;
	275	298	500.26075629999997	4	32	11	;
	275	300	505.991234	6	33	11	;
	275	311	507.56971930000003	5	34	11	;
	276	299	505.991234	6	35	11	;
	276	311	522.9910063000001	2	36	11	;
	276	301	488.5357564	3	37	11	;
	277	300	488.5357564	3	38	11	;
	277	295	509.1256152	4	39	11	;
	277	312	507.8508436	2	40	11	;
	278	307	2340.347319	4	41	11	;
	278	289	2340.347319	4	42	11	;
	278	291	1711.052372	4	43	11	;
	279	290	495.8180928	5	44	11	;
	279	292	494.79954690000005	4	45	11	;
	279	305	489.85876460000003	2	46	11	;
	280	305	784.181131	3	47	11	;
	280	310	2340.347319	2	48	11	;
	281	308	504.58225830000003	5	49	11	;
	281	303	489.85876460000003	2	50	11	;
	281	304	784.181131	3	51	11	;
	281	306	505.0193156	10	52	11	;
	282	292	1000.0	5	53	11	;
	282	305	505.0193156	10	54	11	;
	282	293	1391.5788420000001	3	55	11	;
	283	302	2340.347319	4	56	11	;
	283	294	490.882673	6	57	11	;
	283	295	2590.0200640000003	3	58	11	;
	284	310	1967.9896710000003	3	59	11	;
	284	309	522.9910063000001	2	60	11	;
	284	293	485.4917717000001	4	61	11	;
	284	305	504.58225830000003	5	62	11	;
	285	298	482.3950831	2	63	11	;
	285	308	522.9910063000001	2	64	11	;
	285	293	499.3510694	8	65	11	;
	286	299	2340.347319	4	66	11	;
	286	308	1967.9896710000003	3	67	11	;
	286	304	2340.347319	2	68	11	;
	287	297	959.9180565000001	3	69	11	;
	287	299	507.56971930000003	5	70	11	;
	287	300	522.9910063000001	2	71	11	;
	287	312	500.0	4	72	11	;
	288	296	492.47906050000006	4	73	11	;
	288	311	500.0	4	74	11	;
	288	301	507.8508436	2	75	11	;
	289	314	2590.0200640000003	6	0	12	;
	289	326	2340.347319	4	1	12	;
	290	313	2590.0200640000003	6	2	12	;
	290	327	495.8180928	5	3	12	;
	291	316	1778.27941	2	4	12	;
	291	326	1711.052372	4	5	12	;
	291	318	490.882673	6	6	12	;
	292	315	1778.27941	2	7	12	;
	292	327	494.79954690000005	4	8	12	;
	292	330	1000.0	5	9	12	;
	293	318	1000.0	5	10	12	;
	293	333	499.3510694	8	11	12	;
	293	332	485.4917717000001	4	12	12	;
	293	321	1351.2001550000002	6	13	12	;
	293	330	1391.5788420000001	3	14	12	;
	294	320	487.6508287	4	15	12	;
	294	317	1000.0	5	16	12	;
	294	315	490.882673	6	17	12	;
	294	331	490.882673	6	18	12	;
	295	325	509.1256152	4	19	12	;
	295	331	2590.0200640000003	3	20	12	;
	296	336	492.47906050000006	4	21	12	;
	296	321	512.7526119	5	22	12	;
	296	318	487.6508287	4	23	12	;
	297	335	959.9180565000001	3	24	12	;
	297	322	1456.4753150000001	3	25	12	;
	297	320	512.7526119	5	26	12	;