<NUMBER OF ZONES> 18
<TOTAL OD FLOW> 10000.0
<END OF METADATA>



Origin  1
	10 :	33.0;	11 :	235.0;	12 :	59.0;	13 :	6.0;	14 :	41.0;
	15 :	206.0;	16 :	60.0;	17 :	172.0;	18 :	205.0;

Origin  2
	10 :	190.0;	11 :	186.0;	12 :	217.0;	13 :	2.0;	14 :	168.0;
	15 :	93.0;	16 :	182.0;	17 :	49.0;	18 :	222.0;

Origin  3
	10 :	107.0;	11 :	100.0;	12 :	23.0;	13 :	78.0;	14 :	70.0;
	15 :	34.0;	16 :	153.0;	17 :	49.0;	18 :	125.0;

Origin  4
	10 :	218.0;	11 :	47.0;	12 :	71.0;	13 :	186.0;	14 :	147.0;
	15 :	64.0;	16 :	135.0;	17 :	164.0;	18 :	25.0;

Origin  5
	10 :	113.0;	11 :	79.0;	12 :	224.0;	13 :	98.0;	14 :	157.0;
	15 :	47.0;	16 :	39.0;	17 :	70.0;	18 :	121.0;

Origin  6
	10 :	95.0;	11 :	144.0;	12 :	99.0;	13 :	221.0;	14 :	108.0;
	15 :	196.0;	16 :	201.0;	17 :	244.0;	18 :	93.0;

Origin  7
	10 :	104.0;	11 :	44.0;	12 :	92.0;	13 :	52.0;	14 :	158.0;
	15 :	63.0;	16 :	64.0;	17 :	186.0;	18 :	186.0;

Origin  8
	10 :	224.0;	11 :	236.0;	12 :	41.0;	13 :	125.0;	14 :	201.0;
	15 :	224.0;	16 :	118.0;	17 :	51.0;	18 :	56.0;

Origin  9
	10 :	239.0;	11 :	73.0;	12 :	75.0;	13 :	91.0;	14 :	244.0;
	15 :	165.0;	16 :	190.0;	17 :	91.0;	18 :	136.0;