<NUMBER OF ZONES> 50
<TOTAL OD FLOW> 100000.0
<END OF METADATA>



Origin  1
	26 :	285.0;	27 :	167.0;	28 :	47.0;	29 :	133.0;	30 :	19.0;
	31 :	153.0;	32 :	71.0;	33 :	26.0;	34 :	98.0;	35 :	308.0;
	36 :	238.0;	37 :	274.0;	38 :	50.0;	39 :	123.0;	40 :	288.0;
	41 :	73.0;	42 :	271.0;	43 :	13.0;	44 :	33.0;	45 :	267.0;
	46 :	177.0;	47 :	305.0;	48 :	125.0;	49 :	274.0;	50 :	170.0;


Origin  2
	26 :	141.0;	27 :	239.0;	28 :	163.0;	29 :	311.0;	30 :	74.0;
	31 :	83.0;	32 :	298.0;	33 :	322.0;	34 :	74.0;	35 :	150.0;
	36 :	320.0;	37 :	187.0;	38 :	81.0;	39 :	261.0;	40 :	315.0;
	41 :	241.0;	42 :	143.0;	43 :	39.0;	44 :	0.0;	45 :	138.0;
	46 :	296.0;	47 :	252.0;	48 :	124.0;	49 :	266.0;	50 :	71.0;


Origin  3
	26 :	118.0;	27 :	178.0;	28 :	104.0;	29 :	318.0;	30 :	227.0;
	31 :	40.0;	32 :	220.0;	33 :	131.0;	34 :	276.0;	35 :	181.0;
	36 :	194.0;	37 :	280.0;	38 :	137.0;	39 :	11.0;	40 :	274.0;
	41 :	51.0;	42 :	107.0;	43 :	228.0;	44 :	294.0;	45 :	3.0;
	46 :	63.0;	47 :	4.0;	48 :	42.0;	49 :	20.0;	50 :	45.0;


Origin  4
	26 :	52.0;	27 :	64.0;	28 :	232.0;	29 :	165.0;	30 :	167.0;
	31 :	97.0;	32 :	145.0;	33 :	190.0;	34 :	5.0;	35 :	70.0;
	36 :	311.0;	37 :	226.0;	38 :	129.0;	39 :	72.0;	40 :	72.0;
	41 :	300.0;	42 :	3.0;	43 :	71.0;	44 :	70.0;	45 :	184.0;
	46 :	26.0;	47 :	84.0;	48 :	204.0;	49 :	313.0;	50 :	107.0;


Origin  5
	26 :	141.0;	27 :	143.0;	28 :	39.0;	29 :	115.0;	30 :	56.0;
	31 :	286.0;	32 :	253.0;	33 :	41.0;	34 :	316.0;	35 :	311.0;
	36 :	261.0;	37 :	72.0;	38 :	131.0;	39 :	93.0;	40 :	47.0;
	41 :	144.0;	42 :	125.0;	43 :	323.0;	44 :	259.0;	45 :	179.0;
	46 :	123.0;	47 :	250.0;	48 :	209.0;	49 :	290.0;	50 :	41.0;


Origin  6
	26 :	229.0;	27 :	262.0;	28 :	11.0;	29 :	198.0;	30 :	232.0;
	31 :	111.0;	32 :	98.0;	33 :	152.0;	34 :	195.0;	35 :	281.0;
	36 :	192.0;	37 :	100.0;	38 :	173.0;	39 :	132.0;	40 :	53.0;
	41 :	130.0;	42 :	131.0;	43 :	103.0;	44 :	99.0;	45 :	181.0;
	46 :	225.0;	47 :	261.0;	48 :	164.0;	49 :	56.0;	50 :	112.0;


Origin  7
	26 :	288.0;	27 :	95.0;	28 :	25.0;	29 :	186.0;	30 :	98.0;
	31 :	231.0;	32 :	280.0;	33 :	254.0;	34 :	286.0;	35 :	326.0;
	36 :	0.0;	37 :	193.0;	38 :	84.0;	39 :	299.0;	40 :	229.0;
	41 :	193.0;	42 :	48.0;	43 :	240.0;	44 :	268.0;	45 :	79.0;
	46 :	287.0;	47 :	83.0;	48 :	300.0;	49 :	313.0;	50 :	134.0;


Origin  8
	26 :	148.0;	27 :	257.0;	28 :	26.0;	29 :	231.0;	30 :	228.0;
	31 :	147.0;	32 :	314.0;	33 :	129.0;	34 :	105.0;	35 :	279.0;
	36 :	185.0;	37 :	15.0;	38 :	183.0;	39 :	238.0;	40 :	328.0;
	41 :	111.0;	42 :	74.0;	43 :	73.0;	44 :	68.0;	45 :	29.0;
	46 :	19.0;	47 :	168.0;	48 :	279.0;	49 :	62.0;	50 :	243.0;


Origin  9
	26 :	236.0;	27 :	85.0;	28 :	220.0;	29 :	126.0;	30 :	275.0;
	31 :	273.0;	32 :	317.0;	33 :	325.0;	34 :	67.0;	35 :	226.0;
	36 :	248.0;	37 :	133.0;	38 :	72.0;	39 :	111.0;	40 :	106.0;
	41 :	33.0;	42 :	18.0;	43 :	325.0;	44 :	145.0;	45 :	144.0;
	46 :	199.0;	47 :	245.0;	48 :	143.0;	49 :	225.0;	50 :	17.0;


Origin  10
	26 :	222.0;	27 :	78.0;	28 :	271.0;	29 :	128.0;	30 :	219.0;
	31 :	302.0;	32 :	214.0;	33 :	216.0;	34 :	2.0;	35 :	258.0;
	36 :	203.0;	37 :	69.0;	38 :	167.0;	39 :	2.0;	40 :	210.0;
	41 :	310.0;	42 :	321.0;	43 :	105.0;	44 :	199.0;	45 :	181.0;
	46 :	156.0;	47 :	248.0;	48 :	68.0;	49 :	204.0;	50 :	316.0;


Origin  11
	26 :	154.0;	27 :	128.0;	28 :	302.0;	29 :	182.0;	30 :	252.0;
	31 :	35.0;	32 :	241.0;	33 :	147.0;	34 :	73.0;	35 :	228.0;
	36 :	63.0;	37 :	141.0;	38 :	23.0;	39 :	319.0;	40 :	145.0;
	41 :	130.0;	42 :	157.0;	43 :	14.0;	44 :	241.0;	45 :	266.0;
	46 :	249.0;	47 :	189.0;	48 :	322.0;	49 :	181.0;	50 :	76.0;


Origin  12
	26 :	219.0;	27 :	165.0;	28 :	106.0;	29 :	118.0;	30 :	49.0;
	31 :	236.0;	32 :	10.0;	33 :	280.0;	34 :	176.0;	35 :	23.0;
	36 :	162.0;	37 :	89.0;	38 :	252.0;	39 :	177.0;	40 :	137.0;
	41 :	236.0;	42 :	69.0;	43 :	72.0;	44 :	190.0;	45 :	8.0;
	46 :	259.0;	47 :	107.0;	48 :	149.0;	49 :	217.0;	50 :	230.0;


Origin  13
	26 :	252.0;	27 :	237.0;	28 :	246.0;	29 :	128.0;	30 :	148.0;
	31 :	236.0;	32 :	292.0;	33 :	7.0;	34 :	257.0;	35 :	218.0;
	36 :	262.0;	37 :	200.0;	38 :	314.0;	39 :	107.0;	40 :	84.0;
	41 :	247.0;	42 :	257.0;	43 :	174.0;	44 :	36.0;	45 :	302.0;
	46 :	217.0;	47 :	167.0;	48 :	225.0;	49 :	65.0;	50 :	236.0;


Origin  14
	26 :	115.0;	27 :	185.0;	28 :	43.0;	29 :	60.0;	30 :	82.0;
	31 :	165.0;	32 :	227.0;	33 :	282.0;	34 :	66.0;	35 :	22.0;
	36 :	49.0;	37 :	105.0;	38 :	91.0;	39 :	286.0;	40 :	324.0;
	41 :	268.0;	42 :	48.0;	43 :	159.0;	44 :	166.0;	45 :	260.0;
	46 :	35.0;	47 :	242.0;	48 :	230.0;	49 :	59.0;	50 :	184.0;


Origin  15
	26 :	8.0;	27 :	81.0;	28 :	146.0;	29 :	293.0;	30 :	254.0;
	31 :	238.0;	32 :	47.0;	33 :	132.0;	34 :	43.0;	35 :	153.0;
	36 :	4.0;	37 :	102.0;	38 :	196.0;	39 :	9.0;	40 :	129.0;
	41 :	291.0;	42 :	182.0;	43 :	183.0;	44 :	77.0;	45 :	299.0;
	46 :	257.0;	47 :	3.0;	48 :	129.0;	49 :	196.0;	50 :	238.0;


Origin  16
	26 :	77.0;	27 :	252.0;	28 :	20.0;	29 :	191.0;	30 :	43.0;
	31 :	192.0;	32 :	51.0;	33 :	105.0;	34 :	134.0;	35 :	94.0;
	36 :	227.0;	37 :	165.0;	38 :	98.0;	39 :	82.0;	40 :	48.0;
	41 :	113.0;	42 :	48.0;	43 :	151.0;	44 :	207.0;	45 :	277.0;
	46 :	51.0;	47 :	7.0;	48 :	138.0;	49 :	193.0;	50 :	184.0;


Origin  17
	26 :	303.0;	27 :	225.0;	28 :	146.0;	29 :	172.0;	30 :	20.0;
	31 :	25.0;	32 :	280.0;	33 :	95.0;	34 :	303.0;	35 :	253.0;
	36 :	247.0;	37 :	34.0;	38 :	127.0;	39 :	238.0;	40 :	152.0;
	41 :	0.0;	42 :	170.0;	43 :	273.0;	44 :	191.0;	45 :	218.0;
	46 :	294.0;	47 :	185.0;	48 :	131.0;	49 :	191.0;	50 :	277.0;


Origin  18
	26 :	262.0;	27 :	279.0;	28 :	275.0;	29 :	159.0;	30 :	173.0;
	31 :	24.0;	32 :	12.0;	33 :	175.0;	34 :	314.0;	35 :	13.0;
	36 :	62.0;	37 :	169.0;	38 :	124.0;	39 :	77.0;	40 :	10.0;
	41 :	235.0;	42 :	279.0;	43 :	88.0;	44 :	149.0;	45 :	207.0;
	46 :	198.0;	47 :	161.0;	48 :	262.0;	49 :	217.0;	50 :	10.0;


Origin  19
	26 :	209.0;	27 :	67.0;	28 :	138.0;	29 :	115.0;	30 :	1.0;
	31 :	1.0;	32 :	262.0;	33 :	53.0;	34 :	111.0;	35 :	41.0;
	36 :	174.0;	37 :	3.0;	38 :	230.0;	39 :	17.0;	40 :	274.0;
	41 :	91.0;	42 :	11.0;	43 :	126.0;	44 :	137.0;	45 :	249.0;
	46 :	145.0;	47 :	26.0;	48 :	187.0;	49 :	1.0;	50 :	310.0;


Origin  20
	26 :	141.0;	27 :	229.0;	28 :	299.0;	29 :	19.0;	30 :	194.0;
	31 :	90.0;	32 :	221.0;	33 :	166.0;	34 :	40.0;	35 :	194.0;
	36 :	142.0;	37 :	49.0;	38 :	35.0;	39 :	132.0;	40 :	14.0;
	41 :	85.0;	42 :	148.0;	43 :	57.0;	44 :	102.0;	45 :	197.0;
	46 :	275.0;	47 :	238.0;	48 :	12.0;	49 :	107.0;	50 :	107.0;


Origin  21
	26 :	99.0;	27 :	255.0;	28 :	166.0;	29 :	252.0;	30 :	85.0;
	31 :	266.0;	32 :	252.0;	33 :	322.0;	34 :	265.0;	35 :	298.0;
	36 :	82.0;	37 :	33.0;	38 :	207.0;	39 :	138.0;	40 :	311.0;
	41 :	227.0;	42 :	9.0;	43 :	98.0;	44 :	66.0;	45 :	28.0;
	46 :	312.0;	47 :	54.0;	48 :	145.0;	49 :	185.0;	50 :	91.0;


Origin  22
	26 :	35.0;	27 :	232.0;	28 :	231.0;	29 :	213.0;	30 :	87.0;
	31 :	284.0;	32 :	125.0;	33 :	43.0;	34 :	304.0;	35 :	212.0;
	36 :	1.0;	37 :	291.0;	38 :	163.0;	39 :	206.0;	40 :	24.0;
	41 :	217.0;	42 :	200.0;	43 :	76.0;	44 :	294.0;	45 :	58.0;
	46 :	208.0;	47 :	78.0;	48 :	189.0;	49 :	225.0;	50 :	77.0;


Origin  23
	26 :	192.0;	27 :	94.0;	28 :	84.0;	29 :	260.0;	30 :	138.0;
	31 :	191.0;	32 :	62.0;	33 :	285.0;	34 :	39.0;	35 :	319.0;
	36 :	8.0;	37 :	299.0;	38 :	101.0;	39 :	279.0;	40 :	20.0;
	41 :	198.0;	42 :	248.0;	43 :	15.0;	44 :	107.0;	45 :	264.0;
	46 :	148.0;	47 :	321.0;	48 :	148.0;	49 :	74.0;	50 :	85.0;


Origin  24
	26 :	297.0;	27 :	54.0;	28 :	167.0;	29 :	111.0;	30 :	213.0;
	31 :	142.0;	32 :	256.0;	33 :	226.0;	34 :	56.0;	35 :	202.0;
	36 :	213.0;	37 :	219.0;	38 :	228.0;	39 :	99.0;	40 :	243.0;
	41 :	165.0;	42 :	237.0;	43 :	251.0;	44 :	1.0;	45 :	57.0;
	46 :	63.0;	47 :	97.0;	48 :	4.0;	49 :	29.0;	50 :	266.0;


Origin  25
	26 :	41.0;	27 :	172.0;	28 :	29.0;	29 :	91.0;	30 :	86.0;
	31 :	281.0;	32 :	184.0;	33 :	185.0;	34 :	256.0;	35 :	215.0;
	36 :	157.0;	37 :	197.0;	38 :	20.0;	39 :	152.0;	40 :	13.0;
	41 :	116.0;	42 :	221.0;	43 :	61.0;	44 :	238.0;	45 :	256.0;
	46 :	112.0;	47 :	228.0;	48 :	297.0;	49 :	290.0;	50 :	301.0;
