<NUMBER OF ZONES> 48
<TOTAL OD FLOW> 10000.0
<END OF METADATA>



Origin  1
	25 :	39.0;	26 :	6.0;	27 :	7.0;	28 :	24.0;	29 :	18.0;
	30 :	18.0;	31 :	21.0;	32 :	13.0;	33 :	11.0;	34 :	12.0;
	35 :	27.0;	36 :	21.0;	37 :	1.0;	38 :	16.0;	39 :	20.0;
	40 :	8.0;	41 :	8.0;	42 :	14.0;	43 :	4.0;	44 :	29.0;
	45 :	2.0;	46 :	9.0;	47 :	22.0;	48 :	32.0;

Origin  2
	25 :	11.0;	26 :	16.0;	27 :	21.0;	28 :	15.0;	29 :	16.0;
	30 :	11.0;	31 :	15.0;	32 :	26.0;	33 :	16.0;	34 :	1.0;
	35 :	21.0;	36 :	8.0;	37 :	14.0;	38 :	23.0;	39 :	24.0;
	40 :	20.0;	41 :	17.0;	42 :	8.0;	43 :	9.0;	44 :	25.0;
	45 :	12.0;	46 :	5.0;	47 :	30.0;	48 :	28.0;

Origin  3
	25 :	20.0;	26 :	15.0;	27 :	19.0;	28 :	22.0;	29 :	15.0;
	30 :	5.0;	31 :	23.0;	32 :	9.0;	33 :	6.0;	34 :	24.0;
	35 :	13.0;	36 :	20.0;	37 :	2.0;	38 :	5.0;	39 :	27.0;
	40 :	30.0;	41 :	34.0;	42 :	14.0;	43 :	17.0;	44 :	28.0;
	45 :	29.0;	46 :	30.0;	47 :	4.0;	48 :	19.0;

Origin  4
	25 :	1.0;	26 :	17.0;	27 :	22.0;	28 :	10.0;	29 :	33.0;
	30 :	17.0;	31 :	16.0;	32 :	23.0;	33 :	24.0;	34 :	21.0;
	35 :	23.0;	36 :	7.0;	37 :	14.0;	38 :	33.0;	39 :	17.0;
	40 :	23.0;	41 :	10.0;	42 :	21.0;	43 :	21.0;	44 :	20.0;
	45 :	24.0;	46 :	5.0;	47 :	32.0;	48 :	27.0;

Origin  5
	25 :	25.0;	26 :	32.0;	27 :	3.0;	28 :	2.0;	29 :	15.0;
	30 :	29.0;	31 :	6.0;	32 :	15.0;	33 :	0.0;	34 :	24.0;
	35 :	6.0;	36 :	29.0;	37 :	26.0;	38 :	31.0;	39 :	24.0;
	40 :	5.0;	41 :	27.0;	42 :	8.0;	43 :	21.0;	44 :	0.0;
	45 :	9.0;	46 :	30.0;	47 :	31.0;	48 :	25.0;

Origin  6
	25 :	26.0;	26 :	7.0;	27 :	33.0;	28 :	33.0;	29 :	13.0;
	30 :	26.0;	31 :	5.0;	32 :	18.0;	33 :	11.0;	34 :	6.0;
	35 :	28.0;	36 :	12.0;	37 :	26.0;	38 :	31.0;	39 :	7.0;
	40 :	26.0;	41 :	18.0;	42 :	15.0;	43 :	17.0;	44 :	28.0;
	45 :	15.0;	46 :	20.0;	47 :	26.0;	48 :	5.0;

Origin  7
	25 :	29.0;	26 :	17.0;	27 :	1.0;	28 :	17.0;	29 :	28.0;
	30 :	21.0;	31 :	16.0;	32 :	15.0;	33 :	33.0;	34 :	17.0;
	35 :	31.0;	36 :	24.0;	37 :	11.0;	38 :	20.0;	39 :	19.0;
	40 :	23.0;	41 :	32.0;	42 :	23.0;	43 :	22.0;	44 :	20.0;
	45 :	10.0;	46 :	26.0;	47 :	32.0;	48 :	9.0;

Origin  8
	25 :	11.0;	26 :	31.0;	27 :	29.0;	28 :	32.0;	29 :	30.0;
	30 :	18.0;	31 :	12.0;	32 :	25.0;	33 :	5.0;	34 :	15.0;
	35 :	6.0;	36 :	24.0;	37 :	9.0;	38 :	6.0;	39 :	9.0;
	40 :	22.0;	41 :	20.0;	42 :	31.0;	43 :	32.0;	44 :	16.0;
	45 :	24.0;	46 :	21.0;	47 :	29.0;	48 :	27.0;

Origin  9
	25 :	23.0;	26 :	23.0;	27 :	33.0;	28 :	21.0;	29 :	26.0;
	30 :	27.0;	31 :	11.0;	32 :	29.0;	33 :	3.0;	34 :	30.0;
	35 :	19.0;	36 :	17.0;	37 :	18.0;	38 :	24.0;	39 :	3.0;
	40 :	24.0;	41 :	28.0;	42 :	1.0;	43 :	1.0;	44 :	28.0;
	45 :	24.0;	46 :	13.0;	47 :	16.0;	48 :	21.0;

Origin  10
	25 :	17.0;	26 :	0.0;	27 :	4.0;	28 :	18.0;	29 :	25.0;
	30 :	19.0;	31 :	19.0;	32 :	24.0;	33 :	21.0;	34 :	0.0;
	35 :	18.0;	36 :	2.0;	37 :	13.0;	38 :	3.0;	39 :	3.0;
	40 :	21.0;	41 :	12.0;	42 :	26.0;	43 :	3.0;	44 :	24.0;
	45 :	3.0;	46 :	23.0;	47 :	33.0;	48 :	14.0;

Origin  11
	25 :	17.0;	26 :	2.0;	27 :	19.0;	28 :	20.0;	29 :	21.0;
	30 :	10.0;	31 :	20.0;	32 :	26.0;	33 :	8.0;	34 :	17.0;
	35 :	2.0;	36 :	11.0;	37 :	4.0;	38 :	27.0;	39 :	4.0;
	40 :	10.0;	41 :	13.0;	42 :	31.0;	43 :	21.0;	44 :	28.0;
	45 :	18.0;	46 :	15.0;	47 :	10.0;	48 :	20.0;

Origin  12
	25 :	13.0;	26 :	8.0;	27 :	13.0;	28 :	14.0;	29 :	6.0;
	30 :	26.0;	31 :	22.0;	32 :	23.0;	33 :	6.0;	34 :	16.0;
	35 :	18.0;	36 :	2.0;	37 :	24.0;	38 :	8.0;	39 :	3.0;
	40 :	7.0;	41 :	32.0;	42 :	3.0;	43 :	33.0;	44 :	10.0;
	45 :	13.0;	46 :	18.0;	47 :	19.0;	48 :	26.0;

Origin  13
	25 :	16.0;	26 :	13.0;	27 :	4.0;	28 :	8.0;	29 :	15.0;
	30 :	34.0;	31 :	5.0;	32 :	33.0;	33 :	22.0;	34 :	9.0;
	35 :	18.0;	36 :	14.0;	37 :	16.0;	38 :	9.0;	39 :	15.0;
	40 :	29.0;	41 :	26.0;	42 :	8.0;	43 :	7.0;	44 :	6.0;
	45 :	30.0;	46 :	29.0;	47 :	7.0;	48 :	22.0;

Origin  14
	25 :	1.0;	26 :	21.0;	27 :	32.0;	28 :	17.0;	29 :	7.0;
	30 :	25.0;	31 :	19.0;	32 :	20.0;	33 :	4.0;	34 :	21.0;
	35 :	24.0;	36 :	14.0;	37 :	6.0;	38 :	34.0;	39 :	10.0;
	40 :	1.0;	41 :	22.0;	42 :	32.0;	43 :	5.0;	44 :	27.0;
	45 :	10.0;	46 :	12.0;	47 :	19.0;	48 :	14.0;

Origin  15
	25 :	7.0;	26 :	20.0;	27 :	32.0;	28 :	14.0;	29 :	25.0;
	30 :	10.0;	31 :	2.0;	32 :	14.0;	33 :	33.0;	34 :	20.0;
	35 :	15.0;	36 :	8.0;	37 :	19.0;	38 :	24.0;	39 :	31.0;
	40 :	28.0;	41 :	10.0;	42 :	22.0;	43 :	8.0;	44 :	3.0;
	45 :	5.0;	46 :	23.0;	47 :	27.0;	48 :	32.0;

Origin  16
	25 :	23.0;	26 :	3.0;	27 :	1.0;	28 :	9.0;	29 :	24.0;
	30 :	2.0;	31 :	30.0;	32 :	10.0;	33 :	15.0;	34 :	11.0;
	35 :	3.0;	36 :	29.0;	37 :	9.0;	38 :	11.0;	39 :	20.0;
	40 :	22.0;	41 :	4.0;	42 :	5.0;	43 :	28.0;	44 :	28.0;
	45 :	33.0;	46 :	8.0;	47 :	9.0;	48 :	31.0;

Origin  17
	25 :	31.0;	26 :	23.0;	27 :	29.0;	28 :	17.0;	29 :	23.0;
	30 :	19.0;	31 :	24.0;	32 :	21.0;	33 :	8.0;	34 :	10.0;
	35 :	31.0;	36 :	27.0;	37 :	20.0;	38 :	6.0;	39 :	31.0;
	40 :	3.0;	41 :	10.0;	42 :	9.0;	43 :	10.0;	44 :	18.0;
	45 :	24.0;	46 :	9.0;	47 :	11.0;	48 :	18.0;

Origin  18
	25 :	33.0;	26 :	19.0;	27 :	31.0;	28 :	2.0;	29 :	5.0;
	30 :	27.0;	31 :	26.0;	32 :	10.0;	33 :	29.0;	34 :	28.0;
	35 :	15.0;	36 :	28.0;	37 :	21.0;	38 :	21.0;	39 :	30.0;
	40 :	10.0;	41 :	4.0;	42 :	12.0;	43 :	0.0;	44 :	28.0;
	45 :	14.0;	46 :	26.0;	47 :	3.0;	48 :	16.0;

Origin  19
	25 :	10.0;	26 :	23.0;	27 :	12.0;	28 :	32.0;	29 :	30.0;
	30 :	8.0;	31 :	31.0;	32 :	32.0;	33 :	0.0;	34 :	33.0;
	35 :	6.0;	36 :	19.0;	37 :	30.0;	38 :	17.0;	39 :	27.0;
	40 :	17.0;	41 :	11.0;	42 :	11.0;	43 :	23.0;	44 :	19.0;
	45 :	27.0;	46 :	17.0;	47 :	25.0;	48 :	5.0;

Origin  20
	25 :	27.0;	26 :	27.0;	27 :	0.0;	28 :	31.0;	29 :	33.0;
	30 :	30.0;	31 :	32.0;	32 :	25.0;	33 :	29.0;	34 :	24.0;
	35 :	33.0;	36 :	23.0;	37 :	30.0;	38 :	5.0;	39 :	24.0;
	40 :	30.0;	41 :	27.0;	42 :	0.0;	43 :	9.0;	44 :	24.0;
	45 :	29.0;	46 :	29.0;	47 :	30.0;	48 :	33.0;

Origin  21
	25 :	2.0;	26 :	10.0;	27 :	33.0;	28 :	29.0;	29 :	2.0;
	30 :	1.0;	31 :	23.0;	32 :	4.0;	33 :	0.0;	34 :	21.0;
	35 :	15.0;	36 :	11.0;	37 :	17.0;	38 :	15.0;	39 :	11.0;
	40 :	2.0;	41 :	21.0;	42 :	19.0;	43 :	18.0;	44 :	15.0;
	45 :	4.0;	46 :	29.0;	47 :	14.0;	48 :	4.0;

Origin  22
	25 :	22.0;	26 :	5.0;	27 :	33.0;	28 :	30.0;	29 :	1.0;
	30 :	4.0;	31 :	4.0;	32 :	27.0;	33 :	29.0;	34 :	21.0;
	35 :	3.0;	36 :	1.0;	37 :	21.0;	38 :	24.0;	39 :	26.0;
	40 :	3.0;	41 :	2.0;	42 :	16.0;	43 :	0.0;	44 :	8.0;
	45 :	10.0;	46 :	30.0;	47 :	24.0;	48 :	2.0;

Origin  23
	25 :	1.0;	26 :	30.0;	27 :	13.0;	28 :	9.0;	29 :	28.0;
	30 :	5.0;	31 :	1.0;	32 :	24.0;	33 :	29.0;	34 :	11.0;
	35 :	23.0;	36 :	9.0;	37 :	3.0;	38 :	4.0;	39 :	3.0;
	40 :	25.0;	41 :	29.0;	42 :	17.0;	43 :	31.0;	44 :	14.0;
	45 :	2.0;	46 :	2.0;	47 :	15.0;	48 :	11.0;

Origin  24
	25 :	24.0;	26 :	5.0;	27 :	5.0;	28 :	30.0;	29 :	6.0;
	30 :	32.0;	31 :	19.0;	32 :	4.0;	33 :	33.0;	34 :	4.0;
	35 :	32.0;	36 :	30.0;	37 :	24.0;	38 :	10.0;	39 :	21.0;
	40 :	0.0;	41 :	17.0;	42 :	13.0;	43 :	20.0;	44 :	5.0;
	45 :	12.0;	46 :	13.0;	47 :	30.0;	48 :	30.0;