<NUMBER OF ZONES> 13
<NUMBER OF NODES> 24
<FIRST THRU NODE> 1
<NUMBER OF LINKS> 76
<ORIGINAL HEADER> 
<END OF METADATA>


~	init_node	term_node	capacity	length	free_flow_time	b	power	speed	toll	link_type	;
	1	2	25900.20064	6	6	0.15	4	0	0	1	;
	1	19	23403.47319	4	4	0.15	4	0	0	1	;
	2	1	25900.20064	6	6	0.15	4	0	0	1	;
	2	20	4958.180928	5	5	0.15	4	0	0	1	;
	3	4	17782.7941	2	2	0.15	4	0	0	1	;
	3	19	17110.52372	4	4	0.15	4	0	0	1	;
	3	6	4908.82673	6	6	0.15	4	0	0	1	;
	4	3	17782.7941	2	2	0.15	4	0	0	1	;
	4	20	4947.995469	4	4	0.15	4	0	0	1	;
	4	15	10000.0	5	5	0.15	4	0	0	1	;
	5	6	10000.0	5	5	0.15	4	0	0	1	;
	5	17	4993.510694	8	8	0.15	4	0	0	1	;
	5	16	4854.917717	4	4	0.15	4	0	0	1	;
	5	9	13512.00155	6	6	0.15	4	0	0	1	;
	5	15	13915.78842	3	3	0.15	4	0	0	1	;
	6	8	4876.508287	4	4	0.15	4	0	0	1	;
	6	5	10000.0	5	5	0.15	4	0	0	1	;
	6	3	4908.82673	6	6	0.15	4	0	0	1	;
	6	21	4908.82673	6	6	0.15	4	0	0	1	;
	7	13	5091.256152	4	4	0.15	4	0	0	1	;
	7	21	25900.20064	3	3	0.15	4	0	0	1	;
	8	23	4924.790605	4	4	0.15	4	0	0	1	;
	8	6	4876.508287	4	4	0.15	4	0	0	1	;
	8	9	5127.526119	5	5	0.15	4	0	0	1	;
	9	5	13512.00155	6	6	0.15	4	0	0	1	;
	9	8	5127.526119	5	5	0.15	4	0	0	1	;
	9	10	14564.75315	3	3	0.15	4	0	0	1	;
	9	22	9599.180565	3	3	0.15	4	0	0	1	;
	10	9	14564.75315	3	3	0.15	4	0	0	1	;
	10	11	5002.607563	4	4	0.15	4	0	0	1	;
	10	17	4823.950831	2	2	0.15	4	0	0	1	;
	11	10	5002.607563	4	4	0.15	4	0	0	1	;
	11	12	5059.91234	6	6	0.15	4	0	0	1	;
	11	22	5075.697193	5	5	0.15	4	0	0	1	;
	11	18	23403.47319	4	4	0.15	4	0	0	1	;
	12	11	5059.91234	6	6	0.15	4	0	0	1	;
	12	22	5229.910063	2	2	0.15	4	0	0	1	;
	12	13	4885.357564	3	3	0.15	4	0	0	1	;
	13	12	4885.357564	3	3	0.15	4	0	0	1	;
	13	7	5091.256152	4	4	0.15	4	0	0	1	;
	13	23	5078.508436	2	2	0.15	4	0	0	1	;
	14	15	5050.193156	10	10	0.15	4	0	0	1	;
	14	16	5045.822583	5	5	0.15	4	0	0	1	;
	14	20	4898.587646	2	2	0.15	4	0	0	1	;
	14	24	7841.81131	3	3	0.15	4	0	0	1	;
	15	4	10000.0	5	5	0.15	4	0	0	1	;
	15	14	5050.193156	10	10	0.15	4	0	0	1	;
	15	5	13915.78842	3	3	0.15	4	0	0	1	;
	16	18	19679.89671	3	3	0.15	4	0	0	1	;
	16	17	5229.910063	2	2	0.15	4	0	0	1	;
	16	5	4854.917717	4	4	0.15	4	0	0	1	;
	16	14	5045.822583	5	5	0.15	4	0	0	1	;
	17	5	4993.510694	8	8	0.15	4	0	0	1	;
	17	10	4823.950831	2	2	0.15	4	0	0	1	;
	17	16	5229.910063	2	2	0.15	4	0	0	1	;
	18	24	23403.47319	2	2	0.15	4	0	0	1	;
	18	16	19679.89671	3	3	0.15	4	0	0	1	;
	18	11	23403.47319	4	4	0.15	4	0	0	1	;
	19	1	23403.47319	4	4	0.15	4	0	0	1	;
	19	21	23403.47319	4	4	0.15	4	0	0	1	;
	19	3	17110.52372	4	4	0.15	4	0	0	1	;
	20	14	4898.587646	2	2	0.15	4	0	0	1	;
	20	4	4947.995469	4	4	0.15	4	0	0	1	;
	20	2	4958.180928	5	5	0.15	4	0	0	1	;
	21	19	23403.47319	4	4	0.15	4	0	0	1	;
	21	6	4908.82673	6	6	0.15	4	0	0	1	;
	21	7	25900.20064	3	3	0.15	4	0	0	1	;
	22	9	9599.180565	3	3	0.15	4	0	0	1	;
	22	11	5075.697193	5	5	0.15	4	0	0	1	;
	22	12	5229.910063	2	2	0.15	4	0	0	1	;
	22	23	5000.0	4	4	0.15	4	0	0	1	;
	23	8	4924.790605	4	4	0.15	4	0	0	1	;
	23	22	5000.0	4	4	0.15	4	0	0	1	;
	23	13	5078.508436	2	2	0.15	4	0	0	1	;
	24	14	7841.81131	3	3	0.15	4	0	0	1	;
	24	18	23403.47319	2	2	0.15	4	0	0	1	;