<NUMBER OF ZONES> 13
<NUMBER OF NODES> 24
<FIRST THRU NODE> 1
<NUMBER OF LINKS> 76
<ORIGINAL HEADER> 
<END OF METADATA>


~	init_node	term_node	capacity	length	free_flow_time	b	power	speed	toll	link_type	prev_init_node	prev_term_node	;
	1	2	25900.20064	6	6	0.15	4	0	0	1	1	2	;
	1	14	23403.47319	4	4	0.15	4	0	0	1	1	3	;
	2	1	25900.20064	6	6	0.15	4	0	0	1	2	1	;
	2	15	4958.180928	5	5	0.15	4	0	0	1	2	6	;
	3	4	17782.7941	2	2	0.15	4	0	0	1	4	5	;
	3	14	17110.52372	4	4	0.15	4	0	0	1	4	3	;
	3	6	4908.82673	6	6	0.15	4	0	0	1	4	11	;
	4	3	17782.7941	2	2	0.15	4	0	0	1	5	4	;
	4	15	4947.995469	4	4	0.15	4	0	0	1	5	6	;
	4	18	10000.0	5	5	0.15	4	0	0	1	5	9	;
	5	6	10000.0	5	5	0.15	4	0	0	1	10	11	;
	5	21	4993.510694	8	8	0.15	4	0	0	1	10	17	;
	5	20	4854.917717	4	4	0.15	4	0	0	1	10	16	;
	5	9	13512.00155	6	6	0.15	4	0	0	1	10	15	;
	5	18	13915.78842	3	3	0.15	4	0	0	1	10	9	;
	6	8	4876.508287	4	4	0.15	4	0	0	1	11	14	;
	6	5	10000.0	5	5	0.15	4	0	0	1	11	10	;
	6	3	4908.82673	6	6	0.15	4	0	0	1	11	4	;
	6	19	4908.82673	6	6	0.15	4	0	0	1	11	12	;
	7	13	5091.256152	4	4	0.15	4	0	0	1	13	24	;
	7	19	25900.20064	3	3	0.15	4	0	0	1	13	12	;
	8	24	4924.790605	4	4	0.15	4	0	0	1	14	23	;
	8	9	5127.526119	5	5	0.15	4	0	0	1	14	15	;
	8	6	4876.508287	4	4	0.15	4	0	0	1	14	11	;
	9	23	9599.180565	3	3	0.15	4	0	0	1	15	22	;
	9	10	14564.75315	3	3	0.15	4	0	0	1	15	19	;
	9	8	5127.526119	5	5	0.15	4	0	0	1	15	14	;
	9	5	13512.00155	6	6	0.15	4	0	0	1	15	10	;
	10	9	14564.75315	3	3	0.15	4	0	0	1	19	15	;
	10	11	5002.607563	4	4	0.15	4	0	0	1	19	20	;
	10	21	4823.950831	2	2	0.15	4	0	0	1	19	17	;
	11	22	23403.47319	4	4	0.15	4	0	0	1	20	18	;
	11	10	5002.607563	4	4	0.15	4	0	0	1	20	19	;
	11	12	5059.91234	6	6	0.15	4	0	0	1	20	21	;
	11	23	5075.697193	5	5	0.15	4	0	0	1	20	22	;
	12	11	5059.91234	6	6	0.15	4	0	0	1	21	20	;
	12	23	5229.910063	2	2	0.15	4	0	0	1	21	22	;
	12	13	4885.357564	3	3	0.15	4	0	0	1	21	24	;
	13	12	4885.357564	3	3	0.15	4	0	0	1	24	21	;
	13	7	5091.256152	4	4	0.15	4	0	0	1	24	13	;
	13	24	5078.508436	2	2	0.15	4	0	0	1	24	23	;
	14	19	23403.47319	4	4	0.15	4	0	0	1	3	12	;
	14	1	23403.47319	4	4	0.15	4	0	0	1	3	1	;
	14	3	17110.52372	4	4	0.15	4	0	0	1	3	4	;
	15	2	4958.180928	5	5	0.15	4	0	0	1	6	2	;
	15	4	4947.995469	4	4	0.15	4	0	0	1	6	5	;
	15	17	4898.587646	2	2	0.15	4	0	0	1	6	8	;
	16	17	7841.81131	3	3	0.15	4	0	0	1	7	8	;
	16	22	23403.47319	2	2	0.15	4	0	0	1	7	18	;
	17	20	5045.822583	5	5	0.15	4	0	0	1	8	16	;
	17	15	4898.587646	2	2	0.15	4	0	0	1	8	6	;
	17	16	7841.81131	3	3	0.15	4	0	0	1	8	7	;
	17	18	5050.193156	10	10	0.15	4	0	0	1	8	9	;
	18	4	10000.0	5	5	0.15	4	0	0	1	9	5	;
	18	17	5050.193156	10	10	0.15	4	0	0	1	9	8	;
	18	5	13915.78842	3	3	0.15	4	0	0	1	9	10	;
	19	14	23403.47319	4	4	0.15	4	0	0	1	12	3	;
	19	6	4908.82673	6	6	0.15	4	0	0	1	12	11	;
	19	7	25900.20064	3	3	0.15	4	0	0	1	12	13	;
	20	22	19679.89671	3	3	0.15	4	0	0	1	16	18	;
	20	21	5229.910063	2	2	0.15	4	0	0	1	16	17	;
	20	5	4854.917717	4	4	0.15	4	0	0	1	16	10	;
	20	17	5045.822583	5	5	0.15	4	0	0	1	16	8	;
	21	10	4823.950831	2	2	0.15	4	0	0	1	17	19	;
	21	20	5229.910063	2	2	0.15	4	0	0	1	17	16	;
	21	5	4993.510694	8	8	0.15	4	0	0	1	17	10	;
	22	11	23403.47319	4	4	0.15	4	0	0	1	18	20	;
	22	20	19679.89671	3	3	0.15	4	0	0	1	18	16	;
	22	16	23403.47319	2	2	0.15	4	0	0	1	18	7	;
	23	9	9599.180565	3	3	0.15	4	0	0	1	22	15	;
	23	11	5075.697193	5	5	0.15	4	0	0	1	22	20	;
	23	12	5229.910063	2	2	0.15	4	0	0	1	22	21	;
	23	24	5000.0	4	4	0.15	4	0	0	1	22	23	;
	24	8	4924.790605	4	4	0.15	4	0	0	1	23	14	;
	24	23	5000.0	4	4	0.15	4	0	0	1	23	22	;
	24	13	5078.508436	2	2	0.15	4	0	0	1	23	24	;