<NUMBER OF ZONES> 4
<TOTAL OD FLOW> 10000.0
<END OF METADATA>



Origin  1
	3 :	24.0;	4 :	473.0;

Origin  2
	3 :	5805.0;	4 :	3698.0;