<NUMBER OF ZONES> 50
<TOTAL OD FLOW> 1000.0
<END OF METADATA>



Origin  1
	26 :	16.0;	27 :	2.0;	28 :	1.0;	29 :	1.0;	30 :	3.0;
	31 :	3.0;	32 :	1.0;	33 :	2.0;	34 :	3.0;	35 :	3.0;
	36 :	2.0;	37 :	1.0;	38 :	3.0;	39 :	1.0;	40 :	2.0;
	41 :	1.0;	42 :	3.0;	43 :	2.0;	44 :	1.0;	45 :	1.0;
	46 :	2.0;	47 :	3.0;	48 :	1.0;	49 :	1.0;	50 :	3.0;


Origin  2
	26 :	3.0;	27 :	0.0;	28 :	0.0;	29 :	2.0;	30 :	3.0;
	31 :	0.0;	32 :	2.0;	33 :	1.0;	34 :	2.0;	35 :	3.0;
	36 :	2.0;	37 :	3.0;	38 :	1.0;	39 :	2.0;	40 :	3.0;
	41 :	2.0;	42 :	3.0;	43 :	1.0;	44 :	1.0;	45 :	1.0;
	46 :	1.0;	47 :	1.0;	48 :	0.0;	49 :	2.0;	50 :	1.0;


Origin  3
	26 :	0.0;	27 :	1.0;	28 :	2.0;	29 :	3.0;	30 :	0.0;
	31 :	3.0;	32 :	0.0;	33 :	3.0;	34 :	3.0;	35 :	1.0;
	36 :	3.0;	37 :	2.0;	38 :	1.0;	39 :	0.0;	40 :	2.0;
	41 :	1.0;	42 :	1.0;	43 :	3.0;	44 :	2.0;	45 :	3.0;
	46 :	0.0;	47 :	0.0;	48 :	1.0;	49 :	0.0;	50 :	1.0;


Origin  4
	26 :	2.0;	27 :	1.0;	28 :	1.0;	29 :	0.0;	30 :	3.0;
	31 :	3.0;	32 :	2.0;	33 :	3.0;	34 :	1.0;	35 :	2.0;
	36 :	1.0;	37 :	1.0;	38 :	2.0;	39 :	3.0;	40 :	3.0;
	41 :	0.0;	42 :	3.0;	43 :	3.0;	44 :	3.0;	45 :	3.0;
	46 :	0.0;	47 :	1.0;	48 :	0.0;	49 :	0.0;	50 :	1.0;


Origin  5
	26 :	2.0;	27 :	0.0;	28 :	0.0;	29 :	2.0;	30 :	2.0;
	31 :	0.0;	32 :	1.0;	33 :	2.0;	34 :	2.0;	35 :	1.0;
	36 :	3.0;	37 :	1.0;	38 :	1.0;	39 :	3.0;	40 :	3.0;
	41 :	1.0;	42 :	3.0;	43 :	2.0;	44 :	3.0;	45 :	0.0;
	46 :	1.0;	47 :	2.0;	48 :	2.0;	49 :	3.0;	50 :	2.0;


Origin  6
	26 :	2.0;	27 :	2.0;	28 :	2.0;	29 :	3.0;	30 :	2.0;
	31 :	3.0;	32 :	2.0;	33 :	1.0;	34 :	2.0;	35 :	2.0;
	36 :	2.0;	37 :	3.0;	38 :	2.0;	39 :	0.0;	40 :	2.0;
	41 :	2.0;	42 :	3.0;	43 :	2.0;	44 :	1.0;	45 :	2.0;
	46 :	0.0;	47 :	3.0;	48 :	2.0;	49 :	0.0;	50 :	1.0;


Origin  7
	26 :	3.0;	27 :	2.0;	28 :	1.0;	29 :	2.0;	30 :	2.0;
	31 :	0.0;	32 :	2.0;	33 :	1.0;	34 :	3.0;	35 :	1.0;
	36 :	2.0;	37 :	1.0;	38 :	0.0;	39 :	2.0;	40 :	2.0;
	41 :	0.0;	42 :	3.0;	43 :	1.0;	44 :	2.0;	45 :	3.0;
	46 :	0.0;	47 :	1.0;	48 :	2.0;	49 :	1.0;	50 :	0.0;


Origin  8
	26 :	1.0;	27 :	3.0;	28 :	0.0;	29 :	2.0;	30 :	2.0;
	31 :	1.0;	32 :	0.0;	33 :	3.0;	34 :	3.0;	35 :	2.0;
	36 :	1.0;	37 :	2.0;	38 :	2.0;	39 :	1.0;	40 :	2.0;
	41 :	3.0;	42 :	2.0;	43 :	2.0;	44 :	3.0;	45 :	1.0;
	46 :	1.0;	47 :	0.0;	48 :	0.0;	49 :	2.0;	50 :	3.0;


Origin  9
	26 :	1.0;	27 :	0.0;	28 :	2.0;	29 :	0.0;	30 :	0.0;
	31 :	2.0;	32 :	2.0;	33 :	3.0;	34 :	2.0;	35 :	1.0;
	36 :	2.0;	37 :	2.0;	38 :	2.0;	39 :	2.0;	40 :	1.0;
	41 :	2.0;	42 :	1.0;	43 :	3.0;	44 :	2.0;	45 :	1.0;
	46 :	2.0;	47 :	1.0;	48 :	2.0;	49 :	0.0;	50 :	3.0;


Origin  10
	26 :	1.0;	27 :	1.0;	28 :	0.0;	29 :	1.0;	30 :	2.0;
	31 :	2.0;	32 :	1.0;	33 :	2.0;	34 :	2.0;	35 :	1.0;
	36 :	3.0;	37 :	2.0;	38 :	1.0;	39 :	1.0;	40 :	3.0;
	41 :	3.0;	42 :	1.0;	43 :	3.0;	44 :	1.0;	45 :	3.0;
	46 :	1.0;	47 :	0.0;	48 :	2.0;	49 :	2.0;	50 :	2.0;


Origin  11
	26 :	0.0;	27 :	1.0;	28 :	0.0;	29 :	2.0;	30 :	0.0;
	31 :	3.0;	32 :	1.0;	33 :	0.0;	34 :	2.0;	35 :	1.0;
	36 :	2.0;	37 :	1.0;	38 :	1.0;	39 :	1.0;	40 :	2.0;
	41 :	1.0;	42 :	1.0;	43 :	0.0;	44 :	3.0;	45 :	2.0;
	46 :	1.0;	47 :	3.0;	48 :	2.0;	49 :	2.0;	50 :	3.0;


Origin  12
	26 :	3.0;	27 :	1.0;	28 :	0.0;	29 :	2.0;	30 :	1.0;
	31 :	3.0;	32 :	0.0;	33 :	2.0;	34 :	2.0;	35 :	0.0;
	36 :	0.0;	37 :	0.0;	38 :	1.0;	39 :	3.0;	40 :	1.0;
	41 :	1.0;	42 :	1.0;	43 :	3.0;	44 :	2.0;	45 :	0.0;
	46 :	2.0;	47 :	3.0;	48 :	2.0;	49 :	2.0;	50 :	0.0;


Origin  13
	26 :	2.0;	27 :	0.0;	28 :	1.0;	29 :	2.0;	30 :	2.0;
	31 :	0.0;	32 :	3.0;	33 :	0.0;	34 :	3.0;	35 :	1.0;
	36 :	0.0;	37 :	2.0;	38 :	3.0;	39 :	1.0;	40 :	1.0;
	41 :	1.0;	42 :	2.0;	43 :	3.0;	44 :	0.0;	45 :	3.0;
	46 :	1.0;	47 :	3.0;	48 :	2.0;	49 :	0.0;	50 :	1.0;


Origin  14
	26 :	0.0;	27 :	3.0;	28 :	2.0;	29 :	0.0;	30 :	2.0;
	31 :	0.0;	32 :	1.0;	33 :	3.0;	34 :	1.0;	35 :	1.0;
	36 :	1.0;	37 :	1.0;	38 :	2.0;	39 :	1.0;	40 :	1.0;
	41 :	0.0;	42 :	1.0;	43 :	1.0;	44 :	2.0;	45 :	3.0;
	46 :	3.0;	47 :	3.0;	48 :	2.0;	49 :	1.0;	50 :	0.0;


Origin  15
	26 :	1.0;	27 :	2.0;	28 :	0.0;	29 :	1.0;	30 :	1.0;
	31 :	2.0;	32 :	3.0;	33 :	1.0;	34 :	3.0;	35 :	0.0;
	36 :	1.0;	37 :	1.0;	38 :	0.0;	39 :	3.0;	40 :	3.0;
	41 :	1.0;	42 :	2.0;	43 :	1.0;	44 :	0.0;	45 :	1.0;
	46 :	0.0;	47 :	0.0;	48 :	1.0;	49 :	1.0;	50 :	3.0;


Origin  16
	26 :	0.0;	27 :	2.0;	28 :	0.0;	29 :	1.0;	30 :	0.0;
	31 :	1.0;	32 :	2.0;	33 :	3.0;	34 :	0.0;	35 :	3.0;
	36 :	1.0;	37 :	2.0;	38 :	0.0;	39 :	0.0;	40 :	1.0;
	41 :	3.0;	42 :	2.0;	43 :	2.0;	44 :	2.0;	45 :	1.0;
	46 :	3.0;	47 :	2.0;	48 :	2.0;	49 :	1.0;	50 :	3.0;


Origin  17
	26 :	3.0;	27 :	1.0;	28 :	1.0;	29 :	1.0;	30 :	1.0;
	31 :	1.0;	32 :	1.0;	33 :	2.0;	34 :	1.0;	35 :	0.0;
	36 :	0.0;	37 :	2.0;	38 :	3.0;	39 :	1.0;	40 :	3.0;
	41 :	0.0;	42 :	3.0;	43 :	2.0;	44 :	2.0;	45 :	3.0;
	46 :	2.0;	47 :	2.0;	48 :	0.0;	49 :	2.0;	50 :	2.0;


Origin  18
	26 :	2.0;	27 :	3.0;	28 :	3.0;	29 :	0.0;	30 :	0.0;
	31 :	2.0;	32 :	3.0;	33 :	2.0;	34 :	1.0;	35 :	1.0;
	36 :	1.0;	37 :	2.0;	38 :	2.0;	39 :	3.0;	40 :	1.0;
	41 :	1.0;	42 :	3.0;	43 :	1.0;	44 :	0.0;	45 :	0.0;
	46 :	0.0;	47 :	3.0;	48 :	0.0;	49 :	2.0;	50 :	1.0;


Origin  19
	26 :	1.0;	27 :	3.0;	28 :	2.0;	29 :	1.0;	30 :	2.0;
	31 :	3.0;	32 :	2.0;	33 :	1.0;	34 :	2.0;	35 :	3.0;
	36 :	2.0;	37 :	2.0;	38 :	1.0;	39 :	2.0;	40 :	0.0;
	41 :	1.0;	42 :	1.0;	43 :	2.0;	44 :	1.0;	45 :	1.0;
	46 :	3.0;	47 :	3.0;	48 :	2.0;	49 :	2.0;	50 :	2.0;


Origin  20
	26 :	2.0;	27 :	1.0;	28 :	0.0;	29 :	1.0;	30 :	3.0;
	31 :	2.0;	32 :	1.0;	33 :	2.0;	34 :	2.0;	35 :	1.0;
	36 :	1.0;	37 :	3.0;	38 :	1.0;	39 :	0.0;	40 :	3.0;
	41 :	3.0;	42 :	0.0;	43 :	1.0;	44 :	2.0;	45 :	0.0;
	46 :	0.0;	47 :	2.0;	48 :	0.0;	49 :	2.0;	50 :	2.0;


Origin  21
	26 :	1.0;	27 :	3.0;	28 :	3.0;	29 :	0.0;	30 :	2.0;
	31 :	1.0;	32 :	3.0;	33 :	1.0;	34 :	0.0;	35 :	3.0;
	36 :	2.0;	37 :	0.0;	38 :	2.0;	39 :	3.0;	40 :	1.0;
	41 :	0.0;	42 :	2.0;	43 :	2.0;	44 :	1.0;	45 :	1.0;
	46 :	3.0;	47 :	2.0;	48 :	1.0;	49 :	3.0;	50 :	1.0;


Origin  22
	26 :	1.0;	27 :	2.0;	28 :	0.0;	29 :	3.0;	30 :	3.0;
	31 :	2.0;	32 :	1.0;	33 :	3.0;	34 :	2.0;	35 :	1.0;
	36 :	3.0;	37 :	2.0;	38 :	2.0;	39 :	1.0;	40 :	3.0;
	41 :	3.0;	42 :	1.0;	43 :	2.0;	44 :	1.0;	45 :	1.0;
	46 :	1.0;	47 :	3.0;	48 :	2.0;	49 :	2.0;	50 :	1.0;


Origin  23
	26 :	0.0;	27 :	3.0;	28 :	2.0;	29 :	1.0;	30 :	2.0;
	31 :	0.0;	32 :	3.0;	33 :	2.0;	34 :	2.0;	35 :	1.0;
	36 :	0.0;	37 :	3.0;	38 :	3.0;	39 :	1.0;	40 :	3.0;
	41 :	0.0;	42 :	3.0;	43 :	0.0;	44 :	3.0;	45 :	3.0;
	46 :	0.0;	47 :	0.0;	48 :	3.0;	49 :	0.0;	50 :	3.0;


Origin  24
	26 :	2.0;	27 :	0.0;	28 :	0.0;	29 :	1.0;	30 :	1.0;
	31 :	2.0;	32 :	1.0;	33 :	3.0;	34 :	2.0;	35 :	2.0;
	36 :	0.0;	37 :	1.0;	38 :	3.0;	39 :	3.0;	40 :	0.0;
	41 :	3.0;	42 :	2.0;	43 :	0.0;	44 :	2.0;	45 :	0.0;
	46 :	0.0;	47 :	2.0;	48 :	3.0;	49 :	3.0;	50 :	2.0;


Origin  25
	26 :	1.0;	27 :	1.0;	28 :	0.0;	29 :	1.0;	30 :	1.0;
	31 :	3.0;	32 :	0.0;	33 :	3.0;	34 :	2.0;	35 :	2.0;
	36 :	1.0;	37 :	2.0;	38 :	3.0;	39 :	2.0;	40 :	1.0;
	41 :	0.0;	42 :	1.0;	43 :	3.0;	44 :	1.0;	45 :	3.0;
	46 :	1.0;	47 :	3.0;	48 :	1.0;	49 :	1.0;	50 :	3.0;
