<NUMBER OF ZONES> 12
<TOTAL OD FLOW> 10000.0
<END OF METADATA>



Origin  1
	7 :	279.0;	8 :	113.0;	9 :	452.0;	10 :	497.0;	11 :	392.0;
	12 :	394.0;

Origin  2
	7 :	250.0;	8 :	270.0;	9 :	101.0;	10 :	126.0;	11 :	406.0;
	12 :	11.0;

Origin  3
	7 :	100.0;	8 :	272.0;	9 :	309.0;	10 :	449.0;	11 :	297.0;
	12 :	154.0;

Origin  4
	7 :	513.0;	8 :	155.0;	9 :	127.0;	10 :	401.0;	11 :	453.0;
	12 :	65.0;

Origin  5
	7 :	55.0;	8 :	357.0;	9 :	526.0;	10 :	247.0;	11 :	482.0;
	12 :	404.0;

Origin  6
	7 :	416.0;	8 :	470.0;	9 :	85.0;	10 :	16.0;	11 :	313.0;
	12 :	43.0;