<NUMBER OF ZONES> 8
<TOTAL OD FLOW> 10000.0
<END OF METADATA>



Origin  1
	5 :	749.0;	6 :	651.0;	7 :	290.0;	8 :	370.0;

Origin  2
	5 :	338.0;	6 :	838.0;	7 :	373.0;	8 :	959.0;

Origin  3
	5 :	869.0;	6 :	500.0;	7 :	531.0;	8 :	923.0;

Origin  4
	5 :	976.0;	6 :	672.0;	7 :	488.0;	8 :	473.0;