<NUMBER OF ZONES> 8
<NUMBER OF NODES> 168
<FIRST THRU NODE> 1
<NUMBER OF LINKS> 480
<ORIGINAL HEADER> 
<END OF METADATA>


~	init_node	term_node	free_flow_time	original_link	time	original_TS_link	vehicle_state	link_type	price_index	;
	9	14	5.0	0	0	0	0	1	0	;
	9	15	5.0	1	0	1	0	1	0	;
	10	16	5.0	2	0	2	0	1	0	;
	11	16	5.0	3	0	3	0	1	0	;
	13	18	5.0	0	1	4	0	1	0	;
	13	19	5.0	1	1	5	0	1	0	;
	14	20	5.0	2	1	6	0	1	0	;
	15	20	5.0	3	1	7	0	1	0	;
	17	22	5.0	0	2	8	0	1	0	;
	17	23	5.0	1	2	9	0	1	0	;
	18	24	5.0	2	2	10	0	1	0	;
	19	24	5.0	3	2	11	0	1	0	;
	21	26	5.0	0	3	12	0	1	0	;
	21	27	5.0	1	3	13	0	1	0	;
	22	28	5.0	2	3	14	0	1	0	;
	23	28	5.0	3	3	15	0	1	0	;
	25	30	5.0	0	4	16	0	1	0	;
	25	31	5.0	1	4	17	0	1	0	;
	26	32	5.0	2	4	18	0	1	0	;
	27	32	5.0	3	4	19	0	1	0	;
	29	34	5.0	0	5	20	0	1	0	;
	29	35	5.0	1	5	21	0	1	0	;
	30	36	5.0	2	5	22	0	1	0	;
	31	36	5.0	3	5	23	0	1	0	;
	33	38	5.0	0	6	24	0	1	0	;
	33	39	5.0	1	6	25	0	1	0	;
	34	40	5.0	2	6	26	0	1	0	;
	35	40	5.0	3	6	27	0	1	0	;
	37	42	5.0	0	7	28	0	1	0	;
	37	43	5.0	1	7	29	0	1	0	;
	38	44	5.0	2	7	30	0	1	0	;
	39	44	5.0	3	7	31	0	1	0	;
	41	46	5.0	0	8	32	0	1	0	;
	41	47	5.0	1	8	33	0	1	0	;
	42	48	5.0	2	8	34	0	1	0	;
	43	48	5.0	3	8	35	0	1	0	;
	45	50	5.0	0	9	36	0	1	0	;
	45	51	5.0	1	9	37	0	1	0	;
	46	52	5.0	2	9	38	0	1	0	;
	47	52	5.0	3	9	39	0	1	0	;
	49	54	5.0	0	10	40	0	1	0	;
	49	55	5.0	1	10	41	0	1	0	;
	50	56	5.0	2	10	42	0	1	0	;
	51	56	5.0	3	10	43	0	1	0	;
	53	58	5.0	0	11	44	0	1	0	;
	53	59	5.0	1	11	45	0	1	0	;
	54	60	5.0	2	11	46	0	1	0	;
	55	60	5.0	3	11	47	0	1	0	;
	57	62	5.0	0	12	48	0	1	0	;
	57	63	5.0	1	12	49	0	1	0	;
	58	64	5.0	2	12	50	0	1	0	;
	59	64	5.0	3	12	51	0	1	0	;
	61	66	5.0	0	13	52	0	1	0	;
	61	67	5.0	1	13	53	0	1	0	;
	62	68	5.0	2	13	54	0	1	0	;
	63	68	5.0	3	13	55	0	1	0	;
	65	70	5.0	0	14	56	0	1	0	;
	65	71	5.0	1	14	57	0	1	0	;
	66	72	5.0	2	14	58	0	1	0	;
	67	72	5.0	3	14	59	0	1	0	;
	69	74	5.0	0	15	60	0	1	0	;
	69	75	5.0	1	15	61	0	1	0	;
	70	76	5.0	2	15	62	0	1	0	;
	71	76	5.0	3	15	63	0	1	0	;
	73	78	5.0	0	16	64	0	1	0	;
	73	79	5.0	1	16	65	0	1	0	;
	74	80	5.0	2	16	66	0	1	0	;
	75	80	5.0	3	16	67	0	1	0	;
	77	82	5.0	0	17	68	0	1	0	;
	77	83	5.0	1	17	69	0	1	0	;
	78	84	5.0	2	17	70	0	1	0	;
	79	84	5.0	3	17	71	0	1	0	;
	81	86	5.0	0	18	72	0	1	0	;
	81	87	5.0	1	18	73	0	1	0	;
	82	88	5.0	2	18	74	0	1	0	;
	83	88	5.0	3	18	75	0	1	0	;
	89	94	6.0	0	0	0	1	1	1	;
	89	95	6.0	1	0	1	1	1	1	;
	90	96	6.0	2	0	2	1	1	1	;
	91	96	6.0	3	0	3	1	1	1	;
	93	98	6.0	0	1	4	1	1	1	;
	93	99	6.0	1	1	5	1	1	1	;
	94	100	6.0	2	1	6	1	1	1	;
	95	100	6.0	3	1	7	1	1	1	;
	97	102	6.0	0	2	8	1	1	1	;
	97	103	6.0	1	2	9	1	1	1	;
	98	104	6.0	2	2	10	1	1	1	;
	99	104	6.0	3	2	11	1	1	1	;
	101	106	6.0	0	3	12	1	1	1	;
	101	107	6.0	1	3	13	1	1	1	;
	102	108	6.0	2	3	14	1	1	1	;
	103	108	6.0	3	3	15	1	1	1	;
	105	110	6.0	0	4	16	1	1	1	;
	105	111	6.0	1	4	17	1	1	1	;
	106	112	6.0	2	4	18	1	1	1	;
	107	112	6.0	3	4	19	1	1	1	;
	109	114	6.0	0	5	20	1	1	1	;
	109	115	6.0	1	5	21	1	1	1	;
	110	116	6.0	2	5	22	1	1	1	;
	111	116	6.0	3	5	23	1	1	1	;
	113	118	6.0	0	6	24	1	1	1	;
	113	119	6.0	1	6	25	1	1	1	;
	114	120	6.0	2	6	26	1	1	1	;
	115	120	6.0	3	6	27	1	1	1	;
	117	122	6.0	0	7	28	1	1	1	;
	117	123	6.0	1	7	29	1	1	1	;
	118	124	6.0	2	7	30	1	1	1	;
	119	124	6.0	3	7	31	1	1	1	;
	121	126	6.0	0	8	32	1	1	1	;
	121	127	6.0	1	8	33	1	1	1	;
	122	128	6.0	2	8	34	1	1	1	;
	123	128	6.0	3	8	35	1	1	1	;
	125	130	6.0	0	9	36	1	1	1	;
	125	131	6.0	1	9	37	1	1	1	;
	126	132	6.0	2	9	38	1	1	1	;
	127	132	6.0	3	9	39	1	1	1	;
	129	134	6.0	0	10	40	1	1	1	;
	129	135	6.0	1	10	41	1	1	1	;
	130	136	6.0	2	10	42	1	1	1	;
	131	136	6.0	3	10	43	1	1	1	;
	133	138	6.0	0	11	44	1	1	1	;
	133	139	6.0	1	11	45	1	1	1	;
	134	140	6.0	2	11	46	1	1	1	;
	135	140	6.0	3	11	47	1	1	1	;
	137	142	6.0	0	12	48	1	1	1	;
	137	143	6.0	1	12	49	1	1	1	;
	138	144	6.0	2	12	50	1	1	1	;
	139	144	6.0	3	12	51	1	1	1	;
	141	146	6.0	0	13	52	1	1	1	;
	141	147	6.0	1	13	53	1	1	1	;
	142	148	6.0	2	13	54	1	1	1	;
	143	148	6.0	3	13	55	1	1	1	;
	145	150	6.0	0	14	56	1	1	1	;
	145	151	6.0	1	14	57	1	1	1	;
	146	152	6.0	2	14	58	1	1	1	;
	147	152	6.0	3	14	59	1	1	1	;
	149	154	6.0	0	15	60	1	1	1	;
	149	155	6.0	1	15	61	1	1	1	;
	150	156	6.0	2	15	62	1	1	1	;
	151	156	6.0	3	15	63	1	1	1	;
	153	158	6.0	0	16	64	1	1	1	;
	153	159	6.0	1	16	65	1	1	1	;
	154	160	6.0	2	16	66	1	1	1	;
	155	160	6.0	3	16	67	1	1	1	;
	157	162	6.0	0	17	68	1	1	1	;
	157	163	6.0	1	17	69	1	1	1	;
	158	164	6.0	2	17	70	1	1	1	;
	159	164	6.0	3	17	71	1	1	1	;
	161	166	6.0	0	18	72	1	1	1	;
	161	167	6.0	1	18	73	1	1	1	;
	162	168	6.0	2	18	74	1	1	1	;
	163	168	6.0	3	18	75	1	1	1	;
	1	5	50.0	-1	-1	-1	-1	-1	0	;
	1	6	50.0	-1	-1	-1	-1	-1	0	;
	1	7	50.0	-1	-1	-1	-1	-1	0	;
	1	8	50.0	-1	-1	-1	-1	-1	0	;
	2	5	50.0	-1	-1	-1	-1	-1	0	;
	2	6	50.0	-1	-1	-1	-1	-1	0	;
	2	7	50.0	-1	-1	-1	-1	-1	0	;
	2	8	50.0	-1	-1	-1	-1	-1	0	;
	3	5	50.0	-1	-1	-1	-1	-1	0	;
	3	6	50.0	-1	-1	-1	-1	-1	0	;
	3	7	50.0	-1	-1	-1	-1	-1	0	;
	3	8	50.0	-1	-1	-1	-1	-1	0	;
	4	5	50.0	-1	-1	-1	-1	-1	0	;
	4	6	50.0	-1	-1	-1	-1	-1	0	;
	4	7	50.0	-1	-1	-1	-1	-1	0	;
	4	8	50.0	-1	-1	-1	-1	-1	0	;
	1	9	1.0	-1	0	-1	0	-1	0	;
	2	10	1.0	-1	0	-1	0	-1	0	;
	3	11	1.0	-1	0	-1	0	-1	0	;
	4	12	1.0	-1	0	-1	0	-1	0	;
	1	13	1.0	-1	1	-1	0	-1	0	;
	2	14	1.0	-1	1	-1	0	-1	0	;
	3	15	1.0	-1	1	-1	0	-1	0	;
	4	16	1.0	-1	1	-1	0	-1	0	;
	1	17	1.0	-1	2	-1	0	-1	0	;
	2	18	1.0	-1	2	-1	0	-1	0	;
	3	19	1.0	-1	2	-1	0	-1	0	;
	4	20	1.0	-1	2	-1	0	-1	0	;
	1	21	1.0	-1	3	-1	0	-1	0	;
	2	22	1.0	-1	3	-1	0	-1	0	;
	3	23	1.0	-1	3	-1	0	-1	0	;
	4	24	1.0	-1	3	-1	0	-1	0	;
	1	25	1.0	-1	4	-1	0	-1	0	;
	2	26	1.0	-1	4	-1	0	-1	0	;
	3	27	1.0	-1	4	-1	0	-1	0	;
	4	28	1.0	-1	4	-1	0	-1	0	;
	1	29	1.0	-1	5	-1	0	-1	0	;
	2	30	1.0	-1	5	-1	0	-1	0	;
	3	31	1.0	-1	5	-1	0	-1	0	;
	4	32	1.0	-1	5	-1	0	-1	0	;
	1	33	1.0	-1	6	-1	0	-1	0	;
	2	34	1.0	-1	6	-1	0	-1	0	;
	3	35	1.0	-1	6	-1	0	-1	0	;
	4	36	1.0	-1	6	-1	0	-1	0	;
	1	37	1.0	-1	7	-1	0	-1	0	;
	2	38	1.0	-1	7	-1	0	-1	0	;
	3	39	1.0	-1	7	-1	0	-1	0	;
	4	40	1.0	-1	7	-1	0	-1	0	;
	1	41	1.0	-1	8	-1	0	-1	0	;
	2	42	1.0	-1	8	-1	0	-1	0	;
	3	43	1.0	-1	8	-1	0	-1	0	;
	4	44	1.0	-1	8	-1	0	-1	0	;
	1	45	1.0	-1	9	-1	0	-1	0	;
	2	46	1.0	-1	9	-1	0	-1	0	;
	3	47	1.0	-1	9	-1	0	-1	0	;
	4	48	1.0	-1	9	-1	0	-1	0	;
	1	49	1.0	-1	10	-1	0	-1	0	;
	2	50	1.0	-1	10	-1	0	-1	0	;
	3	51	1.0	-1	10	-1	0	-1	0	;
	4	52	1.0	-1	10	-1	0	-1	0	;
	1	53	1.0	-1	11	-1	0	-1	0	;
	2	54	1.0	-1	11	-1	0	-1	0	;
	3	55	1.0	-1	11	-1	0	-1	0	;
	4	56	1.0	-1	11	-1	0	-1	0	;
	1	57	1.0	-1	12	-1	0	-1	0	;
	2	58	1.0	-1	12	-1	0	-1	0	;
	3	59	1.0	-1	12	-1	0	-1	0	;
	4	60	1.0	-1	12	-1	0	-1	0	;
	1	61	1.0	-1	13	-1	0	-1	0	;
	2	62	1.0	-1	13	-1	0	-1	0	;
	3	63	1.0	-1	13	-1	0	-1	0	;
	4	64	1.0	-1	13	-1	0	-1	0	;
	1	65	1.0	-1	14	-1	0	-1	0	;
	2	66	1.0	-1	14	-1	0	-1	0	;
	3	67	1.0	-1	14	-1	0	-1	0	;
	4	68	1.0	-1	14	-1	0	-1	0	;
	1	69	1.0	-1	15	-1	0	-1	0	;
	2	70	1.0	-1	15	-1	0	-1	0	;
	3	71	1.0	-1	15	-1	0	-1	0	;
	4	72	1.0	-1	15	-1	0	-1	0	;
	1	73	1.0	-1	16	-1	0	-1	0	;
	2	74	1.0	-1	16	-1	0	-1	0	;
	3	75	1.0	-1	16	-1	0	-1	0	;
	4	76	1.0	-1	16	-1	0	-1	0	;
	1	77	1.0	-1	17	-1	0	-1	0	;
	2	78	1.0	-1	17	-1	0	-1	0	;
	3	79	1.0	-1	17	-1	0	-1	0	;
	4	80	1.0	-1	17	-1	0	-1	0	;
	1	81	1.0	-1	18	-1	0	-1	0	;
	2	82	1.0	-1	18	-1	0	-1	0	;
	3	83	1.0	-1	18	-1	0	-1	0	;
	4	84	1.0	-1	18	-1	0	-1	0	;
	1	85	1.0	-1	19	-1	0	-1	0	;
	2	86	1.0	-1	19	-1	0	-1	0	;
	3	87	1.0	-1	19	-1	0	-1	0	;
	4	88	1.0	-1	19	-1	0	-1	0	;
	9	5	6.0	-1	0	-1	0	-1	0	;
	10	6	6.0	-1	0	-1	0	-1	0	;
	11	7	6.0	-1	0	-1	0	-1	0	;
	12	8	6.0	-1	0	-1	0	-1	0	;
	13	5	5.5	-1	1	-1	0	-1	0	;
	14	6	5.5	-1	1	-1	0	-1	0	;
	15	7	5.5	-1	1	-1	0	-1	0	;
	16	8	5.5	-1	1	-1	0	-1	0	;
	17	5	5.0	-1	2	-1	0	-1	0	;
	18	6	5.0	-1	2	-1	0	-1	0	;
	19	7	5.0	-1	2	-1	0	-1	0	;
	20	8	5.0	-1	2	-1	0	-1	0	;
	21	5	4.5	-1	3	-1	0	-1	0	;
	22	6	4.5	-1	3	-1	0	-1	0	;
	23	7	4.5	-1	3	-1	0	-1	0	;
	24	8	4.5	-1	3	-1	0	-1	0	;
	25	5	4.0	-1	4	-1	0	-1	0	;
	26	6	4.0	-1	4	-1	0	-1	0	;
	27	7	4.0	-1	4	-1	0	-1	0	;
	28	8	4.0	-1	4	-1	0	-1	0	;
	29	5	3.5	-1	5	-1	0	-1	0	;
	30	6	3.5	-1	5	-1	0	-1	0	;
	31	7	3.5	-1	5	-1	0	-1	0	;
	32	8	3.5	-1	5	-1	0	-1	0	;
	33	5	3.0	-1	6	-1	0	-1	0	;
	34	6	3.0	-1	6	-1	0	-1	0	;
	35	7	3.0	-1	6	-1	0	-1	0	;
	36	8	3.0	-1	6	-1	0	-1	0	;
	37	5	2.5	-1	7	-1	0	-1	0	;
	38	6	2.5	-1	7	-1	0	-1	0	;
	39	7	2.5	-1	7	-1	0	-1	0	;
	40	8	2.5	-1	7	-1	0	-1	0	;
	41	5	2.0	-1	8	-1	0	-1	0	;
	42	6	2.0	-1	8	-1	0	-1	0	;
	43	7	2.0	-1	8	-1	0	-1	0	;
	44	8	2.0	-1	8	-1	0	-1	0	;
	45	5	1.5	-1	9	-1	0	-1	0	;
	46	6	1.5	-1	9	-1	0	-1	0	;
	47	7	1.5	-1	9	-1	0	-1	0	;
	48	8	1.5	-1	9	-1	0	-1	0	;
	49	5	1.0	-1	10	-1	0	-1	0	;
	50	6	1.0	-1	10	-1	0	-1	0	;
	51	7	1.0	-1	10	-1	0	-1	0	;
	52	8	1.0	-1	10	-1	0	-1	0	;
	53	5	0.5	-1	11	-1	0	-1	0	;
	54	6	0.5	-1	11	-1	0	-1	0	;
	55	7	0.5	-1	11	-1	0	-1	0	;
	56	8	0.5	-1	11	-1	0	-1	0	;
	57	5	0.0	-1	12	-1	0	-1	0	;
	58	6	0.0	-1	12	-1	0	-1	0	;
	59	7	0.0	-1	12	-1	0	-1	0	;
	60	8	0.0	-1	12	-1	0	-1	0	;
	61	5	1.0	-1	13	-1	0	-1	0	;
	62	6	1.0	-1	13	-1	0	-1	0	;
	63	7	1.0	-1	13	-1	0	-1	0	;
	64	8	1.0	-1	13	-1	0	-1	0	;
	65	5	2.0	-1	14	-1	0	-1	0	;
	66	6	2.0	-1	14	-1	0	-1	0	;
	67	7	2.0	-1	14	-1	0	-1	0	;
	68	8	2.0	-1	14	-1	0	-1	0	;
	69	5	3.0	-1	15	-1	0	-1	0	;
	70	6	3.0	-1	15	-1	0	-1	0	;
	71	7	3.0	-1	15	-1	0	-1	0	;
	72	8	3.0	-1	15	-1	0	-1	0	;
	73	5	4.0	-1	16	-1	0	-1	0	;
	74	6	4.0	-1	16	-1	0	-1	0	;
	75	7	4.0	-1	16	-1	0	-1	0	;
	76	8	4.0	-1	16	-1	0	-1	0	;
	77	5	5.0	-1	17	-1	0	-1	0	;
	78	6	5.0	-1	17	-1	0	-1	0	;
	79	7	5.0	-1	17	-1	0	-1	0	;
	80	8	5.0	-1	17	-1	0	-1	0	;
	81	5	6.0	-1	18	-1	0	-1	0	;
	82	6	6.0	-1	18	-1	0	-1	0	;
	83	7	6.0	-1	18	-1	0	-1	0	;
	84	8	6.0	-1	18	-1	0	-1	0	;
	85	5	7.0	-1	19	-1	0	-1	0	;
	86	6	7.0	-1	19	-1	0	-1	0	;
	87	7	7.0	-1	19	-1	0	-1	0	;
	88	8	7.0	-1	19	-1	0	-1	0	;
	9	93	1.0	-1	0	-1	-1	2	1	;
	10	94	1.0	-1	0	-1	-1	2	1	;
	11	95	1.0	-1	0	-1	-1	2	1	;
	12	96	1.0	-1	0	-1	-1	2	1	;
	13	97	1.0	-1	1	-1	-1	2	1	;
	14	98	1.0	-1	1	-1	-1	2	1	;
	15	99	1.0	-1	1	-1	-1	2	1	;
	16	100	1.0	-1	1	-1	-1	2	1	;
	17	101	1.0	-1	2	-1	-1	2	1	;
	18	102	1.0	-1	2	-1	-1	2	1	;
	19	103	1.0	-1	2	-1	-1	2	1	;
	20	104	1.0	-1	2	-1	-1	2	1	;
	21	105	1.0	-1	3	-1	-1	2	1	;
	22	106	1.0	-1	3	-1	-1	2	1	;
	23	107	1.0	-1	3	-1	-1	2	1	;
	24	108	1.0	-1	3	-1	-1	2	1	;
	25	109	1.0	-1	4	-1	-1	2	1	;
	26	110	1.0	-1	4	-1	-1	2	1	;
	27	111	1.0	-1	4	-1	-1	2	1	;
	28	112	1.0	-1	4	-1	-1	2	1	;
	29	113	1.0	-1	5	-1	-1	2	1	;
	30	114	1.0	-1	5	-1	-1	2	1	;
	31	115	1.0	-1	5	-1	-1	2	1	;
	32	116	1.0	-1	5	-1	-1	2	1	;
	33	117	1.0	-1	6	-1	-1	2	1	;
	34	118	1.0	-1	6	-1	-1	2	1	;
	35	119	1.0	-1	6	-1	-1	2	1	;
	36	120	1.0	-1	6	-1	-1	2	1	;
	37	121	1.0	-1	7	-1	-1	2	1	;
	38	122	1.0	-1	7	-1	-1	2	1	;
	39	123	1.0	-1	7	-1	-1	2	1	;
	40	124	1.0	-1	7	-1	-1	2	1	;
	41	125	1.0	-1	8	-1	-1	2	1	;
	42	126	1.0	-1	8	-1	-1	2	1	;
	43	127	1.0	-1	8	-1	-1	2	1	;
	44	128	1.0	-1	8	-1	-1	2	1	;
	45	129	1.0	-1	9	-1	-1	2	1	;
	46	130	1.0	-1	9	-1	-1	2	1	;
	47	131	1.0	-1	9	-1	-1	2	1	;
	48	132	1.0	-1	9	-1	-1	2	1	;
	49	133	1.0	-1	10	-1	-1	2	1	;
	50	134	1.0	-1	10	-1	-1	2	1	;
	51	135	1.0	-1	10	-1	-1	2	1	;
	52	136	1.0	-1	10	-1	-1	2	1	;
	53	137	1.0	-1	11	-1	-1	2	1	;
	54	138	1.0	-1	11	-1	-1	2	1	;
	55	139	1.0	-1	11	-1	-1	2	1	;
	56	140	1.0	-1	11	-1	-1	2	1	;
	57	141	1.0	-1	12	-1	-1	2	1	;
	58	142	1.0	-1	12	-1	-1	2	1	;
	59	143	1.0	-1	12	-1	-1	2	1	;
	60	144	1.0	-1	12	-1	-1	2	1	;
	61	145	1.0	-1	13	-1	-1	2	1	;
	62	146	1.0	-1	13	-1	-1	2	1	;
	63	147	1.0	-1	13	-1	-1	2	1	;
	64	148	1.0	-1	13	-1	-1	2	1	;
	65	149	1.0	-1	14	-1	-1	2	1	;
	66	150	1.0	-1	14	-1	-1	2	1	;
	67	151	1.0	-1	14	-1	-1	2	1	;
	68	152	1.0	-1	14	-1	-1	2	1	;
	69	153	1.0	-1	15	-1	-1	2	1	;
	70	154	1.0	-1	15	-1	-1	2	1	;
	71	155	1.0	-1	15	-1	-1	2	1	;
	72	156	1.0	-1	15	-1	-1	2	1	;
	73	157	1.0	-1	16	-1	-1	2	1	;
	74	158	1.0	-1	16	-1	-1	2	1	;
	75	159	1.0	-1	16	-1	-1	2	1	;
	76	160	1.0	-1	16	-1	-1	2	1	;
	77	161	1.0	-1	17	-1	-1	2	1	;
	78	162	1.0	-1	17	-1	-1	2	1	;
	79	163	1.0	-1	17	-1	-1	2	1	;
	80	164	1.0	-1	17	-1	-1	2	1	;
	81	165	1.0	-1	18	-1	-1	2	1	;
	82	166	1.0	-1	18	-1	-1	2	1	;
	83	167	1.0	-1	18	-1	-1	2	1	;
	84	168	1.0	-1	18	-1	-1	2	1	;
	89	13	1.0	-1	0	-1	-1	3	1	;
	90	14	1.0	-1	0	-1	-1	3	1	;
	91	15	1.0	-1	0	-1	-1	3	1	;
	92	16	1.0	-1	0	-1	-1	3	1	;
	93	17	1.0	-1	1	-1	-1	3	1	;
	94	18	1.0	-1	1	-1	-1	3	1	;
	95	19	1.0	-1	1	-1	-1	3	1	;
	96	20	1.0	-1	1	-1	-1	3	1	;
	97	21	1.0	-1	2	-1	-1	3	1	;
	98	22	1.0	-1	2	-1	-1	3	1	;
	99	23	1.0	-1	2	-1	-1	3	1	;
	100	24	1.0	-1	2	-1	-1	3	1	;
	101	25	1.0	-1	3	-1	-1	3	1	;
	102	26	1.0	-1	3	-1	-1	3	1	;
	103	27	1.0	-1	3	-1	-1	3	1	;
	104	28	1.0	-1	3	-1	-1	3	1	;
	105	29	1.0	-1	4	-1	-1	3	1	;
	106	30	1.0	-1	4	-1	-1	3	1	;
	107	31	1.0	-1	4	-1	-1	3	1	;
	108	32	1.0	-1	4	-1	-1	3	1	;
	109	33	1.0	-1	5	-1	-1	3	1	;
	110	34	1.0	-1	5	-1	-1	3	1	;
	111	35	1.0	-1	5	-1	-1	3	1	;
	112	36	1.0	-1	5	-1	-1	3	1	;
	113	37	1.0	-1	6	-1	-1	3	1	;
	114	38	1.0	-1	6	-1	-1	3	1	;
	115	39	1.0	-1	6	-1	-1	3	1	;
	116	40	1.0	-1	6	-1	-1	3	1	;
	117	41	1.0	-1	7	-1	-1	3	1	;
	118	42	1.0	-1	7	-1	-1	3	1	;
	119	43	1.0	-1	7	-1	-1	3	1	;
	120	44	1.0	-1	7	-1	-1	3	1	;
	121	45	1.0	-1	8	-1	-1	3	1	;
	122	46	1.0	-1	8	-1	-1	3	1	;
	123	47	1.0	-1	8	-1	-1	3	1	;
	124	48	1.0	-1	8	-1	-1	3	1	;
	125	49	1.0	-1	9	-1	-1	3	1	;
	126	50	1.0	-1	9	-1	-1	3	1	;
	127	51	1.0	-1	9	-1	-1	3	1	;
	128	52	1.0	-1	9	-1	-1	3	1	;
	129	53	1.0	-1	10	-1	-1	3	1	;
	130	54	1.0	-1	10	-1	-1	3	1	;
	131	55	1.0	-1	10	-1	-1	3	1	;
	132	56	1.0	-1	10	-1	-1	3	1	;
	133	57	1.0	-1	11	-1	-1	3	1	;
	134	58	1.0	-1	11	-1	-1	3	1	;
	135	59	1.0	-1	11	-1	-1	3	1	;
	136	60	1.0	-1	11	-1	-1	3	1	;
	137	61	1.0	-1	12	-1	-1	3	1	;
	138	62	1.0	-1	12	-1	-1	3	1	;
	139	63	1.0	-1	12	-1	-1	3	1	;
	140	64	1.0	-1	12	-1	-1	3	1	;
	141	65	1.0	-1	13	-1	-1	3	1	;
	142	66	1.0	-1	13	-1	-1	3	1	;
	143	67	1.0	-1	13	-1	-1	3	1	;
	144	68	1.0	-1	13	-1	-1	3	1	;
	145	69	1.0	-1	14	-1	-1	3	1	;
	146	70	1.0	-1	14	-1	-1	3	1	;
	147	71	1.0	-1	14	-1	-1	3	1	;
	148	72	1.0	-1	14	-1	-1	3	1	;
	149	73	1.0	-1	15	-1	-1	3	1	;
	150	74	1.0	-1	15	-1	-1	3	1	;
	151	75	1.0	-1	15	-1	-1	3	1	;
	152	76	1.0	-1	15	-1	-1	3	1	;
	153	77	1.0	-1	16	-1	-1	3	1	;
	154	78	1.0	-1	16	-1	-1	3	1	;
	155	79	1.0	-1	16	-1	-1	3	1	;
	156	80	1.0	-1	16	-1	-1	3	1	;
	157	81	1.0	-1	17	-1	-1	3	1	;
	158	82	1.0	-1	17	-1	-1	3	1	;
	159	83	1.0	-1	17	-1	-1	3	1	;
	160	84	1.0	-1	17	-1	-1	3	1	;
	161	85	1.0	-1	18	-1	-1	3	1	;
	162	86	1.0	-1	18	-1	-1	3	1	;
	163	87	1.0	-1	18	-1	-1	3	1	;
	164	88	1.0	-1	18	-1	-1	3	1	;