<NUMBER OF ZONES> 50
<TOTAL OD FLOW> 100000.0
<END OF METADATA>



Origin  1
	26 :	193.0;	27 :	3.0;	28 :	3.0;	29 :	93.0;	30 :	186.0;
	31 :	202.0;	32 :	93.0;	33 :	196.0;	34 :	164.0;	35 :	186.0;
	36 :	300.0;	37 :	67.0;	38 :	28.0;	39 :	261.0;	40 :	99.0;
	41 :	124.0;	42 :	176.0;	43 :	112.0;	44 :	189.0;	45 :	153.0;
	46 :	28.0;	47 :	176.0;	48 :	323.0;	49 :	178.0;	50 :	114.0;


Origin  2
	26 :	299.0;	27 :	86.0;	28 :	219.0;	29 :	26.0;	30 :	0.0;
	31 :	301.0;	32 :	71.0;	33 :	101.0;	34 :	170.0;	35 :	63.0;
	36 :	306.0;	37 :	295.0;	38 :	292.0;	39 :	118.0;	40 :	86.0;
	41 :	193.0;	42 :	236.0;	43 :	21.0;	44 :	195.0;	45 :	145.0;
	46 :	192.0;	47 :	196.0;	48 :	88.0;	49 :	299.0;	50 :	23.0;


Origin  3
	26 :	175.0;	27 :	70.0;	28 :	270.0;	29 :	185.0;	30 :	150.0;
	31 :	73.0;	32 :	212.0;	33 :	103.0;	34 :	147.0;	35 :	134.0;
	36 :	73.0;	37 :	134.0;	38 :	189.0;	39 :	113.0;	40 :	165.0;
	41 :	213.0;	42 :	219.0;	43 :	299.0;	44 :	53.0;	45 :	48.0;
	46 :	231.0;	47 :	217.0;	48 :	184.0;	49 :	122.0;	50 :	197.0;


Origin  4
	26 :	235.0;	27 :	158.0;	28 :	286.0;	29 :	297.0;	30 :	94.0;
	31 :	197.0;	32 :	28.0;	33 :	260.0;	34 :	228.0;	35 :	285.0;
	36 :	312.0;	37 :	115.0;	38 :	253.0;	39 :	244.0;	40 :	183.0;
	41 :	299.0;	42 :	39.0;	43 :	1.0;	44 :	18.0;	45 :	286.0;
	46 :	252.0;	47 :	202.0;	48 :	141.0;	49 :	88.0;	50 :	72.0;


Origin  5
	26 :	35.0;	27 :	41.0;	28 :	193.0;	29 :	15.0;	30 :	39.0;
	31 :	273.0;	32 :	301.0;	33 :	187.0;	34 :	246.0;	35 :	188.0;
	36 :	213.0;	37 :	215.0;	38 :	18.0;	39 :	300.0;	40 :	75.0;
	41 :	124.0;	42 :	137.0;	43 :	276.0;	44 :	276.0;	45 :	316.0;
	46 :	18.0;	47 :	56.0;	48 :	39.0;	49 :	27.0;	50 :	253.0;


Origin  6
	26 :	227.0;	27 :	169.0;	28 :	254.0;	29 :	96.0;	30 :	299.0;
	31 :	39.0;	32 :	73.0;	33 :	141.0;	34 :	267.0;	35 :	215.0;
	36 :	322.0;	37 :	260.0;	38 :	145.0;	39 :	71.0;	40 :	290.0;
	41 :	197.0;	42 :	185.0;	43 :	22.0;	44 :	192.0;	45 :	183.0;
	46 :	47.0;	47 :	215.0;	48 :	267.0;	49 :	253.0;	50 :	306.0;


Origin  7
	26 :	20.0;	27 :	315.0;	28 :	86.0;	29 :	279.0;	30 :	99.0;
	31 :	214.0;	32 :	82.0;	33 :	121.0;	34 :	202.0;	35 :	168.0;
	36 :	305.0;	37 :	40.0;	38 :	156.0;	39 :	124.0;	40 :	1.0;
	41 :	252.0;	42 :	169.0;	43 :	168.0;	44 :	13.0;	45 :	191.0;
	46 :	253.0;	47 :	13.0;	48 :	13.0;	49 :	276.0;	50 :	244.0;


Origin  8
	26 :	229.0;	27 :	215.0;	28 :	80.0;	29 :	147.0;	30 :	183.0;
	31 :	160.0;	32 :	134.0;	33 :	319.0;	34 :	90.0;	35 :	28.0;
	36 :	14.0;	37 :	72.0;	38 :	268.0;	39 :	301.0;	40 :	188.0;
	41 :	33.0;	42 :	181.0;	43 :	197.0;	44 :	38.0;	45 :	35.0;
	46 :	156.0;	47 :	114.0;	48 :	10.0;	49 :	20.0;	50 :	113.0;


Origin  9
	26 :	284.0;	27 :	319.0;	28 :	159.0;	29 :	185.0;	30 :	244.0;
	31 :	253.0;	32 :	68.0;	33 :	26.0;	34 :	81.0;	35 :	303.0;
	36 :	156.0;	37 :	159.0;	38 :	241.0;	39 :	23.0;	40 :	13.0;
	41 :	317.0;	42 :	39.0;	43 :	139.0;	44 :	200.0;	45 :	133.0;
	46 :	185.0;	47 :	221.0;	48 :	78.0;	49 :	283.0;	50 :	33.0;


Origin  10
	26 :	161.0;	27 :	259.0;	28 :	36.0;	29 :	235.0;	30 :	24.0;
	31 :	102.0;	32 :	32.0;	33 :	130.0;	34 :	35.0;	35 :	196.0;
	36 :	267.0;	37 :	294.0;	38 :	133.0;	39 :	189.0;	40 :	190.0;
	41 :	256.0;	42 :	170.0;	43 :	3.0;	44 :	289.0;	45 :	120.0;
	46 :	170.0;	47 :	25.0;	48 :	62.0;	49 :	88.0;	50 :	146.0;


Origin  11
	26 :	264.0;	27 :	2.0;	28 :	258.0;	29 :	170.0;	30 :	283.0;
	31 :	171.0;	32 :	204.0;	33 :	53.0;	34 :	50.0;	35 :	279.0;
	36 :	137.0;	37 :	253.0;	38 :	198.0;	39 :	222.0;	40 :	52.0;
	41 :	156.0;	42 :	24.0;	43 :	139.0;	44 :	159.0;	45 :	53.0;
	46 :	91.0;	47 :	64.0;	48 :	276.0;	49 :	278.0;	50 :	224.0;


Origin  12
	26 :	182.0;	27 :	83.0;	28 :	122.0;	29 :	321.0;	30 :	315.0;
	31 :	120.0;	32 :	20.0;	33 :	295.0;	34 :	70.0;	35 :	199.0;
	36 :	44.0;	37 :	147.0;	38 :	213.0;	39 :	153.0;	40 :	76.0;
	41 :	42.0;	42 :	25.0;	43 :	116.0;	44 :	196.0;	45 :	56.0;
	46 :	112.0;	47 :	128.0;	48 :	291.0;	49 :	119.0;	50 :	34.0;


Origin  13
	26 :	179.0;	27 :	161.0;	28 :	140.0;	29 :	112.0;	30 :	93.0;
	31 :	208.0;	32 :	41.0;	33 :	221.0;	34 :	133.0;	35 :	190.0;
	36 :	267.0;	37 :	1.0;	38 :	129.0;	39 :	148.0;	40 :	20.0;
	41 :	48.0;	42 :	1.0;	43 :	126.0;	44 :	288.0;	45 :	125.0;
	46 :	72.0;	47 :	214.0;	48 :	188.0;	49 :	272.0;	50 :	268.0;


Origin  14
	26 :	34.0;	27 :	35.0;	28 :	228.0;	29 :	36.0;	30 :	49.0;
	31 :	68.0;	32 :	251.0;	33 :	115.0;	34 :	105.0;	35 :	286.0;
	36 :	171.0;	37 :	305.0;	38 :	302.0;	39 :	245.0;	40 :	244.0;
	41 :	186.0;	42 :	184.0;	43 :	181.0;	44 :	323.0;	45 :	124.0;
	46 :	33.0;	47 :	17.0;	48 :	69.0;	49 :	273.0;	50 :	71.0;


Origin  15
	26 :	186.0;	27 :	249.0;	28 :	254.0;	29 :	297.0;	30 :	210.0;
	31 :	197.0;	32 :	268.0;	33 :	163.0;	34 :	175.0;	35 :	192.0;
	36 :	299.0;	37 :	17.0;	38 :	78.0;	39 :	247.0;	40 :	321.0;
	41 :	118.0;	42 :	235.0;	43 :	214.0;	44 :	142.0;	45 :	309.0;
	46 :	182.0;	47 :	60.0;	48 :	188.0;	49 :	75.0;	50 :	106.0;


Origin  16
	26 :	107.0;	27 :	292.0;	28 :	20.0;	29 :	161.0;	30 :	113.0;
	31 :	285.0;	32 :	284.0;	33 :	291.0;	34 :	26.0;	35 :	56.0;
	36 :	41.0;	37 :	228.0;	38 :	28.0;	39 :	155.0;	40 :	263.0;
	41 :	173.0;	42 :	79.0;	43 :	249.0;	44 :	323.0;	45 :	123.0;
	46 :	27.0;	47 :	278.0;	48 :	213.0;	49 :	282.0;	50 :	99.0;


Origin  17
	26 :	40.0;	27 :	264.0;	28 :	288.0;	29 :	252.0;	30 :	116.0;
	31 :	107.0;	32 :	27.0;	33 :	288.0;	34 :	202.0;	35 :	217.0;
	36 :	303.0;	37 :	92.0;	38 :	287.0;	39 :	293.0;	40 :	267.0;
	41 :	41.0;	42 :	152.0;	43 :	279.0;	44 :	251.0;	45 :	316.0;
	46 :	183.0;	47 :	254.0;	48 :	275.0;	49 :	157.0;	50 :	129.0;


Origin  18
	26 :	128.0;	27 :	95.0;	28 :	174.0;	29 :	144.0;	30 :	105.0;
	31 :	212.0;	32 :	156.0;	33 :	260.0;	34 :	189.0;	35 :	129.0;
	36 :	6.0;	37 :	179.0;	38 :	262.0;	39 :	281.0;	40 :	124.0;
	41 :	58.0;	42 :	154.0;	43 :	315.0;	44 :	164.0;	45 :	27.0;
	46 :	232.0;	47 :	5.0;	48 :	249.0;	49 :	9.0;	50 :	30.0;


Origin  19
	26 :	258.0;	27 :	306.0;	28 :	179.0;	29 :	311.0;	30 :	69.0;
	31 :	30.0;	32 :	242.0;	33 :	128.0;	34 :	113.0;	35 :	22.0;
	36 :	205.0;	37 :	217.0;	38 :	195.0;	39 :	316.0;	40 :	173.0;
	41 :	151.0;	42 :	273.0;	43 :	77.0;	44 :	118.0;	45 :	49.0;
	46 :	116.0;	47 :	317.0;	48 :	103.0;	49 :	100.0;	50 :	112.0;


Origin  20
	26 :	27.0;	27 :	78.0;	28 :	66.0;	29 :	4.0;	30 :	208.0;
	31 :	49.0;	32 :	148.0;	33 :	150.0;	34 :	189.0;	35 :	155.0;
	36 :	244.0;	37 :	150.0;	38 :	237.0;	39 :	142.0;	40 :	125.0;
	41 :	278.0;	42 :	45.0;	43 :	105.0;	44 :	142.0;	45 :	278.0;
	46 :	8.0;	47 :	226.0;	48 :	91.0;	49 :	295.0;	50 :	197.0;


Origin  21
	26 :	303.0;	27 :	37.0;	28 :	270.0;	29 :	163.0;	30 :	280.0;
	31 :	59.0;	32 :	4.0;	33 :	211.0;	34 :	23.0;	35 :	68.0;
	36 :	34.0;	37 :	276.0;	38 :	159.0;	39 :	309.0;	40 :	128.0;
	41 :	34.0;	42 :	107.0;	43 :	47.0;	44 :	113.0;	45 :	17.0;
	46 :	258.0;	47 :	103.0;	48 :	14.0;	49 :	164.0;	50 :	286.0;


Origin  22
	26 :	72.0;	27 :	233.0;	28 :	165.0;	29 :	46.0;	30 :	115.0;
	31 :	123.0;	32 :	36.0;	33 :	190.0;	34 :	200.0;	35 :	41.0;
	36 :	171.0;	37 :	62.0;	38 :	124.0;	39 :	2.0;	40 :	292.0;
	41 :	41.0;	42 :	5.0;	43 :	174.0;	44 :	165.0;	45 :	194.0;
	46 :	208.0;	47 :	264.0;	48 :	21.0;	49 :	307.0;	50 :	205.0;


Origin  23
	26 :	154.0;	27 :	114.0;	28 :	293.0;	29 :	208.0;	30 :	281.0;
	31 :	256.0;	32 :	69.0;	33 :	90.0;	34 :	37.0;	35 :	27.0;
	36 :	72.0;	37 :	199.0;	38 :	296.0;	39 :	43.0;	40 :	111.0;
	41 :	97.0;	42 :	296.0;	43 :	206.0;	44 :	113.0;	45 :	284.0;
	46 :	131.0;	47 :	287.0;	48 :	272.0;	49 :	77.0;	50 :	111.0;


Origin  24
	26 :	284.0;	27 :	240.0;	28 :	190.0;	29 :	98.0;	30 :	76.0;
	31 :	156.0;	32 :	223.0;	33 :	316.0;	34 :	194.0;	35 :	156.0;
	36 :	109.0;	37 :	163.0;	38 :	26.0;	39 :	155.0;	40 :	108.0;
	41 :	69.0;	42 :	55.0;	43 :	300.0;	44 :	146.0;	45 :	54.0;
	46 :	15.0;	47 :	286.0;	48 :	116.0;	49 :	60.0;	50 :	159.0;


Origin  25
	26 :	297.0;	27 :	60.0;	28 :	99.0;	29 :	162.0;	30 :	296.0;
	31 :	116.0;	32 :	144.0;	33 :	308.0;	34 :	94.0;	35 :	188.0;
	36 :	258.0;	37 :	271.0;	38 :	28.0;	39 :	199.0;	40 :	242.0;
	41 :	310.0;	42 :	140.0;	43 :	245.0;	44 :	214.0;	45 :	185.0;
	46 :	217.0;	47 :	126.0;	48 :	267.0;	49 :	36.0;	50 :	320.0;
