<NUMBER OF ZONES> 32
<TOTAL OD FLOW> 10000.0
<END OF METADATA>



Origin  1
	17 :	63.0;	18 :	27.0;	19 :	53.0;	20 :	64.0;	21 :	45.0;
	22 :	42.0;	23 :	16.0;	24 :	28.0;	25 :	36.0;	26 :	45.0;
	27 :	65.0;	28 :	36.0;	29 :	15.0;	30 :	34.0;	31 :	6.0;
	32 :	76.0;

Origin  2
	17 :	30.0;	18 :	78.0;	19 :	2.0;	20 :	32.0;	21 :	61.0;
	22 :	7.0;	23 :	50.0;	24 :	74.0;	25 :	3.0;	26 :	33.0;
	27 :	73.0;	28 :	49.0;	29 :	26.0;	30 :	42.0;	31 :	34.0;
	32 :	72.0;

Origin  3
	17 :	59.0;	18 :	48.0;	19 :	0.0;	20 :	51.0;	21 :	21.0;
	22 :	18.0;	23 :	18.0;	24 :	20.0;	25 :	23.0;	26 :	77.0;
	27 :	21.0;	28 :	30.0;	29 :	20.0;	30 :	64.0;	31 :	10.0;
	32 :	43.0;

Origin  4
	17 :	6.0;	18 :	37.0;	19 :	5.0;	20 :	4.0;	21 :	51.0;
	22 :	10.0;	23 :	11.0;	24 :	60.0;	25 :	36.0;	26 :	59.0;
	27 :	63.0;	28 :	45.0;	29 :	7.0;	30 :	39.0;	31 :	39.0;
	32 :	45.0;

Origin  5
	17 :	2.0;	18 :	74.0;	19 :	76.0;	20 :	11.0;	21 :	68.0;
	22 :	35.0;	23 :	68.0;	24 :	13.0;	25 :	14.0;	26 :	49.0;
	27 :	2.0;	28 :	29.0;	29 :	75.0;	30 :	68.0;	31 :	18.0;
	32 :	62.0;

Origin  6
	17 :	37.0;	18 :	54.0;	19 :	65.0;	20 :	40.0;	21 :	42.0;
	22 :	22.0;	23 :	38.0;	24 :	49.0;	25 :	69.0;	26 :	33.0;
	27 :	62.0;	28 :	51.0;	29 :	29.0;	30 :	7.0;	31 :	1.0;
	32 :	79.0;

Origin  7
	17 :	55.0;	18 :	41.0;	19 :	18.0;	20 :	69.0;	21 :	1.0;
	22 :	59.0;	23 :	7.0;	24 :	73.0;	25 :	66.0;	26 :	5.0;
	27 :	49.0;	28 :	69.0;	29 :	46.0;	30 :	26.0;	31 :	32.0;
	32 :	11.0;

Origin  8
	17 :	73.0;	18 :	29.0;	19 :	71.0;	20 :	55.0;	21 :	14.0;
	22 :	59.0;	23 :	4.0;	24 :	78.0;	25 :	56.0;	26 :	77.0;
	27 :	55.0;	28 :	24.0;	29 :	62.0;	30 :	37.0;	31 :	32.0;
	32 :	21.0;

Origin  9
	17 :	24.0;	18 :	14.0;	19 :	65.0;	20 :	8.0;	21 :	73.0;
	22 :	36.0;	23 :	69.0;	24 :	25.0;	25 :	40.0;	26 :	58.0;
	27 :	47.0;	28 :	17.0;	29 :	28.0;	30 :	49.0;	31 :	63.0;
	32 :	25.0;

Origin  10
	17 :	0.0;	18 :	53.0;	19 :	72.0;	20 :	69.0;	21 :	73.0;
	22 :	16.0;	23 :	37.0;	24 :	16.0;	25 :	1.0;	26 :	50.0;
	27 :	59.0;	28 :	29.0;	29 :	27.0;	30 :	17.0;	31 :	38.0;
	32 :	79.0;

Origin  11
	17 :	58.0;	18 :	15.0;	19 :	53.0;	20 :	12.0;	21 :	40.0;
	22 :	7.0;	23 :	45.0;	24 :	13.0;	25 :	31.0;	26 :	23.0;
	27 :	56.0;	28 :	43.0;	29 :	65.0;	30 :	11.0;	31 :	46.0;
	32 :	3.0;

Origin  12
	17 :	34.0;	18 :	44.0;	19 :	0.0;	20 :	37.0;	21 :	34.0;
	22 :	64.0;	23 :	79.0;	24 :	24.0;	25 :	29.0;	26 :	13.0;
	27 :	66.0;	28 :	58.0;	29 :	75.0;	30 :	47.0;	31 :	0.0;
	32 :	37.0;

Origin  13
	17 :	42.0;	18 :	5.0;	19 :	46.0;	20 :	54.0;	21 :	77.0;
	22 :	77.0;	23 :	38.0;	24 :	34.0;	25 :	51.0;	26 :	11.0;
	27 :	71.0;	28 :	77.0;	29 :	14.0;	30 :	61.0;	31 :	43.0;
	32 :	39.0;

Origin  14
	17 :	11.0;	18 :	29.0;	19 :	11.0;	20 :	36.0;	21 :	54.0;
	22 :	68.0;	23 :	79.0;	24 :	58.0;	25 :	13.0;	26 :	34.0;
	27 :	51.0;	28 :	28.0;	29 :	61.0;	30 :	14.0;	31 :	13.0;
	32 :	38.0;

Origin  15
	17 :	36.0;	18 :	30.0;	19 :	29.0;	20 :	4.0;	21 :	10.0;
	22 :	26.0;	23 :	37.0;	24 :	10.0;	25 :	41.0;	26 :	19.0;
	27 :	24.0;	28 :	33.0;	29 :	79.0;	30 :	8.0;	31 :	37.0;
	32 :	52.0;

Origin  16
	17 :	43.0;	18 :	38.0;	19 :	16.0;	20 :	18.0;	21 :	66.0;
	22 :	60.0;	23 :	48.0;	24 :	34.0;	25 :	13.0;	26 :	1.0;
	27 :	74.0;	28 :	26.0;	29 :	58.0;	30 :	52.0;	31 :	50.0;
	32 :	78.0;