<NUMBER OF ZONES> 32
<NUMBER OF NODES> 672
<FIRST THRU NODE> 1
<NUMBER OF LINKS> 2416
<ORIGINAL HEADER> 
<END OF METADATA>


~	init_node	term_node	free_flow_time	original_link	time	original_TS_link	vehicle_state	link_type	price_index	;
	33	50	5.0	0	0	0	0	1	0	;
	33	53	5.0	1	0	1	0	1	0	;
	34	51	5.0	2	0	2	0	1	0	;
	34	54	5.0	3	0	3	0	1	0	;
	35	52	5.0	4	0	4	0	1	0	;
	35	55	5.0	5	0	5	0	1	0	;
	36	56	5.0	6	0	6	0	1	0	;
	37	54	5.0	7	0	7	0	1	0	;
	37	57	5.0	8	0	8	0	1	0	;
	38	55	5.0	9	0	9	0	1	0	;
	38	58	5.0	10	0	10	0	1	0	;
	39	56	5.0	11	0	11	0	1	0	;
	39	59	5.0	12	0	12	0	1	0	;
	40	60	5.0	13	0	13	0	1	0	;
	41	58	5.0	14	0	14	0	1	0	;
	41	61	5.0	15	0	15	0	1	0	;
	42	59	5.0	16	0	16	0	1	0	;
	42	62	5.0	17	0	17	0	1	0	;
	43	60	5.0	18	0	18	0	1	0	;
	43	63	5.0	19	0	19	0	1	0	;
	44	64	5.0	20	0	20	0	1	0	;
	45	62	5.0	21	0	21	0	1	0	;
	46	63	5.0	22	0	22	0	1	0	;
	47	64	5.0	23	0	23	0	1	0	;
	49	66	5.0	0	1	24	0	1	0	;
	49	69	5.0	1	1	25	0	1	0	;
	50	67	5.0	2	1	26	0	1	0	;
	50	70	5.0	3	1	27	0	1	0	;
	51	68	5.0	4	1	28	0	1	0	;
	51	71	5.0	5	1	29	0	1	0	;
	52	72	5.0	6	1	30	0	1	0	;
	53	70	5.0	7	1	31	0	1	0	;
	53	73	5.0	8	1	32	0	1	0	;
	54	71	5.0	9	1	33	0	1	0	;
	54	74	5.0	10	1	34	0	1	0	;
	55	72	5.0	11	1	35	0	1	0	;
	55	75	5.0	12	1	36	0	1	0	;
	56	76	5.0	13	1	37	0	1	0	;
	57	74	5.0	14	1	38	0	1	0	;
	57	77	5.0	15	1	39	0	1	0	;
	58	75	5.0	16	1	40	0	1	0	;
	58	78	5.0	17	1	41	0	1	0	;
	59	76	5.0	18	1	42	0	1	0	;
	59	79	5.0	19	1	43	0	1	0	;
	60	80	5.0	20	1	44	0	1	0	;
	61	78	5.0	21	1	45	0	1	0	;
	62	79	5.0	22	1	46	0	1	0	;
	63	80	5.0	23	1	47	0	1	0	;
	65	82	5.0	0	2	48	0	1	0	;
	65	85	5.0	1	2	49	0	1	0	;
	66	83	5.0	2	2	50	0	1	0	;
	66	86	5.0	3	2	51	0	1	0	;
	67	84	5.0	4	2	52	0	1	0	;
	67	87	5.0	5	2	53	0	1	0	;
	68	88	5.0	6	2	54	0	1	0	;
	69	86	5.0	7	2	55	0	1	0	;
	69	89	5.0	8	2	56	0	1	0	;
	70	87	5.0	9	2	57	0	1	0	;
	70	90	5.0	10	2	58	0	1	0	;
	71	88	5.0	11	2	59	0	1	0	;
	71	91	5.0	12	2	60	0	1	0	;
	72	92	5.0	13	2	61	0	1	0	;
	73	90	5.0	14	2	62	0	1	0	;
	73	93	5.0	15	2	63	0	1	0	;
	74	91	5.0	16	2	64	0	1	0	;
	74	94	5.0	17	2	65	0	1	0	;
	75	92	5.0	18	2	66	0	1	0	;
	75	95	5.0	19	2	67	0	1	0	;
	76	96	5.0	20	2	68	0	1	0	;
	77	94	5.0	21	2	69	0	1	0	;
	78	95	5.0	22	2	70	0	1	0	;
	79	96	5.0	23	2	71	0	1	0	;
	81	98	5.0	0	3	72	0	1	0	;
	81	101	5.0	1	3	73	0	1	0	;
	82	99	5.0	2	3	74	0	1	0	;
	82	102	5.0	3	3	75	0	1	0	;
	83	100	5.0	4	3	76	0	1	0	;
	83	103	5.0	5	3	77	0	1	0	;
	84	104	5.0	6	3	78	0	1	0	;
	85	102	5.0	7	3	79	0	1	0	;
	85	105	5.0	8	3	80	0	1	0	;
	86	103	5.0	9	3	81	0	1	0	;
	86	106	5.0	10	3	82	0	1	0	;
	87	104	5.0	11	3	83	0	1	0	;
	87	107	5.0	12	3	84	0	1	0	;
	88	108	5.0	13	3	85	0	1	0	;
	89	106	5.0	14	3	86	0	1	0	;
	89	109	5.0	15	3	87	0	1	0	;
	90	107	5.0	16	3	88	0	1	0	;
	90	110	5.0	17	3	89	0	1	0	;
	91	108	5.0	18	3	90	0	1	0	;
	91	111	5.0	19	3	91	0	1	0	;
	92	112	5.0	20	3	92	0	1	0	;
	93	110	5.0	21	3	93	0	1	0	;
	94	111	5.0	22	3	94	0	1	0	;
	95	112	5.0	23	3	95	0	1	0	;
	97	114	5.0	0	4	96	0	1	0	;
	97	117	5.0	1	4	97	0	1	0	;
	98	115	5.0	2	4	98	0	1	0	;
	98	118	5.0	3	4	99	0	1	0	;
	99	116	5.0	4	4	100	0	1	0	;
	99	119	5.0	5	4	101	0	1	0	;
	100	120	5.0	6	4	102	0	1	0	;
	101	118	5.0	7	4	103	0	1	0	;
	101	121	5.0	8	4	104	0	1	0	;
	102	119	5.0	9	4	105	0	1	0	;
	102	122	5.0	10	4	106	0	1	0	;
	103	120	5.0	11	4	107	0	1	0	;
	103	123	5.0	12	4	108	0	1	0	;
	104	124	5.0	13	4	109	0	1	0	;
	105	122	5.0	14	4	110	0	1	0	;
	105	125	5.0	15	4	111	0	1	0	;
	106	123	5.0	16	4	112	0	1	0	;
	106	126	5.0	17	4	113	0	1	0	;
	107	124	5.0	18	4	114	0	1	0	;
	107	127	5.0	19	4	115	0	1	0	;
	108	128	5.0	20	4	116	0	1	0	;
	109	126	5.0	21	4	117	0	1	0	;
	110	127	5.0	22	4	118	0	1	0	;
	111	128	5.0	23	4	119	0	1	0	;
	113	130	5.0	0	5	120	0	1	0	;
	113	133	5.0	1	5	121	0	1	0	;
	114	131	5.0	2	5	122	0	1	0	;
	114	134	5.0	3	5	123	0	1	0	;
	115	132	5.0	4	5	124	0	1	0	;
	115	135	5.0	5	5	125	0	1	0	;
	116	136	5.0	6	5	126	0	1	0	;
	117	134	5.0	7	5	127	0	1	0	;
	117	137	5.0	8	5	128	0	1	0	;
	118	135	5.0	9	5	129	0	1	0	;
	118	138	5.0	10	5	130	0	1	0	;
	119	136	5.0	11	5	131	0	1	0	;
	119	139	5.0	12	5	132	0	1	0	;
	120	140	5.0	13	5	133	0	1	0	;
	121	138	5.0	14	5	134	0	1	0	;
	121	141	5.0	15	5	135	0	1	0	;
	122	139	5.0	16	5	136	0	1	0	;
	122	142	5.0	17	5	137	0	1	0	;
	123	140	5.0	18	5	138	0	1	0	;
	123	143	5.0	19	5	139	0	1	0	;
	124	144	5.0	20	5	140	0	1	0	;
	125	142	5.0	21	5	141	0	1	0	;
	126	143	5.0	22	5	142	0	1	0	;
	127	144	5.0	23	5	143	0	1	0	;
	129	146	5.0	0	6	144	0	1	0	;
	129	149	5.0	1	6	145	0	1	0	;
	130	147	5.0	2	6	146	0	1	0	;
	130	150	5.0	3	6	147	0	1	0	;
	131	148	5.0	4	6	148	0	1	0	;
	131	151	5.0	5	6	149	0	1	0	;
	132	152	5.0	6	6	150	0	1	0	;
	133	150	5.0	7	6	151	0	1	0	;
	133	153	5.0	8	6	152	0	1	0	;
	134	151	5.0	9	6	153	0	1	0	;
	134	154	5.0	10	6	154	0	1	0	;
	135	152	5.0	11	6	155	0	1	0	;
	135	155	5.0	12	6	156	0	1	0	;
	136	156	5.0	13	6	157	0	1	0	;
	137	154	5.0	14	6	158	0	1	0	;
	137	157	5.0	15	6	159	0	1	0	;
	138	155	5.0	16	6	160	0	1	0	;
	138	158	5.0	17	6	161	0	1	0	;
	139	156	5.0	18	6	162	0	1	0	;
	139	159	5.0	19	6	163	0	1	0	;
	140	160	5.0	20	6	164	0	1	0	;
	141	158	5.0	21	6	165	0	1	0	;
	142	159	5.0	22	6	166	0	1	0	;
	143	160	5.0	23	6	167	0	1	0	;
	145	162	5.0	0	7	168	0	1	0	;
	145	165	5.0	1	7	169	0	1	0	;
	146	163	5.0	2	7	170	0	1	0	;
	146	166	5.0	3	7	171	0	1	0	;
	147	164	5.0	4	7	172	0	1	0	;
	147	167	5.0	5	7	173	0	1	0	;
	148	168	5.0	6	7	174	0	1	0	;
	149	166	5.0	7	7	175	0	1	0	;
	149	169	5.0	8	7	176	0	1	0	;
	150	167	5.0	9	7	177	0	1	0	;
	150	170	5.0	10	7	178	0	1	0	;
	151	168	5.0	11	7	179	0	1	0	;
	151	171	5.0	12	7	180	0	1	0	;
	152	172	5.0	13	7	181	0	1	0	;
	153	170	5.0	14	7	182	0	1	0	;
	153	173	5.0	15	7	183	0	1	0	;
	154	171	5.0	16	7	184	0	1	0	;
	154	174	5.0	17	7	185	0	1	0	;
	155	172	5.0	18	7	186	0	1	0	;
	155	175	5.0	19	7	187	0	1	0	;
	156	176	5.0	20	7	188	0	1	0	;
	157	174	5.0	21	7	189	0	1	0	;
	158	175	5.0	22	7	190	0	1	0	;
	159	176	5.0	23	7	191	0	1	0	;
	161	178	5.0	0	8	192	0	1	0	;
	161	181	5.0	1	8	193	0	1	0	;
	162	179	5.0	2	8	194	0	1	0	;
	162	182	5.0	3	8	195	0	1	0	;
	163	180	5.0	4	8	196	0	1	0	;
	163	183	5.0	5	8	197	0	1	0	;
	164	184	5.0	6	8	198	0	1	0	;
	165	182	5.0	7	8	199	0	1	0	;
	165	185	5.0	8	8	200	0	1	0	;
	166	183	5.0	9	8	201	0	1	0	;
	166	186	5.0	10	8	202	0	1	0	;
	167	184	5.0	11	8	203	0	1	0	;
	167	187	5.0	12	8	204	0	1	0	;
	168	188	5.0	13	8	205	0	1	0	;
	169	186	5.0	14	8	206	0	1	0	;
	169	189	5.0	15	8	207	0	1	0	;
	170	187	5.0	16	8	208	0	1	0	;
	170	190	5.0	17	8	209	0	1	0	;
	171	188	5.0	18	8	210	0	1	0	;
	171	191	5.0	19	8	211	0	1	0	;
	172	192	5.0	20	8	212	0	1	0	;
	173	190	5.0	21	8	213	0	1	0	;
	174	191	5.0	22	8	214	0	1	0	;
	175	192	5.0	23	8	215	0	1	0	;
	177	194	5.0	0	9	216	0	1	0	;
	177	197	5.0	1	9	217	0	1	0	;
	178	195	5.0	2	9	218	0	1	0	;
	178	198	5.0	3	9	219	0	1	0	;
	179	196	5.0	4	9	220	0	1	0	;
	179	199	5.0	5	9	221	0	1	0	;
	180	200	5.0	6	9	222	0	1	0	;
	181	198	5.0	7	9	223	0	1	0	;
	181	201	5.0	8	9	224	0	1	0	;
	182	199	5.0	9	9	225	0	1	0	;
	182	202	5.0	10	9	226	0	1	0	;
	183	200	5.0	11	9	227	0	1	0	;
	183	203	5.0	12	9	228	0	1	0	;
	184	204	5.0	13	9	229	0	1	0	;
	185	202	5.0	14	9	230	0	1	0	;
	185	205	5.0	15	9	231	0	1	0	;
	186	203	5.0	16	9	232	0	1	0	;
	186	206	5.0	17	9	233	0	1	0	;
	187	204	5.0	18	9	234	0	1	0	;
	187	207	5.0	19	9	235	0	1	0	;
	188	208	5.0	20	9	236	0	1	0	;
	189	206	5.0	21	9	237	0	1	0	;
	190	207	5.0	22	9	238	0	1	0	;
	191	208	5.0	23	9	239	0	1	0	;
	193	210	5.0	0	10	240	0	1	0	;
	193	213	5.0	1	10	241	0	1	0	;
	194	211	5.0	2	10	242	0	1	0	;
	194	214	5.0	3	10	243	0	1	0	;
	195	212	5.0	4	10	244	0	1	0	;
	195	215	5.0	5	10	245	0	1	0	;
	196	216	5.0	6	10	246	0	1	0	;
	197	214	5.0	7	10	247	0	1	0	;
	197	217	5.0	8	10	248	0	1	0	;
	198	215	5.0	9	10	249	0	1	0	;
	198	218	5.0	10	10	250	0	1	0	;
	199	216	5.0	11	10	251	0	1	0	;
	199	219	5.0	12	10	252	0	1	0	;
	200	220	5.0	13	10	253	0	1	0	;
	201	218	5.0	14	10	254	0	1	0	;
	201	221	5.0	15	10	255	0	1	0	;
	202	219	5.0	16	10	256	0	1	0	;
	202	222	5.0	17	10	257	0	1	0	;
	203	220	5.0	18	10	258	0	1	0	;
	203	223	5.0	19	10	259	0	1	0	;
	204	224	5.0	20	10	260	0	1	0	;
	205	222	5.0	21	10	261	0	1	0	;
	206	223	5.0	22	10	262	0	1	0	;
	207	224	5.0	23	10	263	0	1	0	;
	209	226	5.0	0	11	264	0	1	0	;
	209	229	5.0	1	11	265	0	1	0	;
	210	227	5.0	2	11	266	0	1	0	;
	210	230	5.0	3	11	267	0	1	0	;
	211	228	5.0	4	11	268	0	1	0	;
	211	231	5.0	5	11	269	0	1	0	;
	212	232	5.0	6	11	270	0	1	0	;
	213	230	5.0	7	11	271	0	1	0	;
	213	233	5.0	8	11	272	0	1	0	;
	214	231	5.0	9	11	273	0	1	0	;
	214	234	5.0	10	11	274	0	1	0	;
	215	232	5.0	11	11	275	0	1	0	;
	215	235	5.0	12	11	276	0	1	0	;
	216	236	5.0	13	11	277	0	1	0	;
	217	234	5.0	14	11	278	0	1	0	;
	217	237	5.0	15	11	279	0	1	0	;
	218	235	5.0	16	11	280	0	1	0	;
	218	238	5.0	17	11	281	0	1	0	;
	219	236	5.0	18	11	282	0	1	0	;
	219	239	5.0	19	11	283	0	1	0	;
	220	240	5.0	20	11	284	0	1	0	;
	221	238	5.0	21	11	285	0	1	0	;
	222	239	5.0	22	11	286	0	1	0	;
	223	240	5.0	23	11	287	0	1	0	;
	225	242	5.0	0	12	288	0	1	0	;
	225	245	5.0	1	12	289	0	1	0	;
	226	243	5.0	2	12	290	0	1	0	;
	226	246	5.0	3	12	291	0	1	0	;
	227	244	5.0	4	12	292	0	1	0	;
	227	247	5.0	5	12	293	0	1	0	;
	228	248	5.0	6	12	294	0	1	0	;
	229	246	5.0	7	12	295	0	1	0	;
	229	249	5.0	8	12	296	0	1	0	;
	230	247	5.0	9	12	297	0	1	0	;
	230	250	5.0	10	12	298	0	1	0	;
	231	248	5.0	11	12	299	0	1	0	;
	231	251	5.0	12	12	300	0	1	0	;
	232	252	5.0	13	12	301	0	1	0	;
	233	250	5.0	14	12	302	0	1	0	;
	233	253	5.0	15	12	303	0	1	0	;
	234	251	5.0	16	12	304	0	1	0	;
	234	254	5.0	17	12	305	0	1	0	;
	235	252	5.0	18	12	306	0	1	0	;
	235	255	5.0	19	12	307	0	1	0	;
	236	256	5.0	20	12	308	0	1	0	;
	237	254	5.0	21	12	309	0	1	0	;
	238	255	5.0	22	12	310	0	1	0	;
	239	256	5.0	23	12	311	0	1	0	;
	241	258	5.0	0	13	312	0	1	0	;
	241	261	5.0	1	13	313	0	1	0	;
	242	259	5.0	2	13	314	0	1	0	;
	242	262	5.0	3	13	315	0	1	0	;
	243	260	5.0	4	13	316	0	1	0	;
	243	263	5.0	5	13	317	0	1	0	;
	244	264	5.0	6	13	318	0	1	0	;
	245	262	5.0	7	13	319	0	1	0	;
	245	265	5.0	8	13	320	0	1	0	;
	246	263	5.0	9	13	321	0	1	0	;
	246	266	5.0	10	13	322	0	1	0	;
	247	264	5.0	11	13	323	0	1	0	;
	247	267	5.0	12	13	324	0	1	0	;
	248	268	5.0	13	13	325	0	1	0	;
	249	266	5.0	14	13	326	0	1	0	;
	249	269	5.0	15	13	327	0	1	0	;
	250	267	5.0	16	13	328	0	1	0	;
	250	270	5.0	17	13	329	0	1	0	;
	251	268	5.0	18	13	330	0	1	0	;
	251	271	5.0	19	13	331	0	1	0	;
	252	272	5.0	20	13	332	0	1	0	;
	253	270	5.0	21	13	333	0	1	0	;
	254	271	5.0	22	13	334	0	1	0	;
	255	272	5.0	23	13	335	0	1	0	;
	257	274	5.0	0	14	336	0	1	0	;
	257	277	5.0	1	14	337	0	1	0	;
	258	275	5.0	2	14	338	0	1	0	;
	258	278	5.0	3	14	339	0	1	0	;
	259	276	5.0	4	14	340	0	1	0	;
	259	279	5.0	5	14	341	0	1	0	;
	260	280	5.0	6	14	342	0	1	0	;
	261	278	5.0	7	14	343	0	1	0	;
	261	281	5.0	8	14	344	0	1	0	;
	262	279	5.0	9	14	345	0	1	0	;
	262	282	5.0	10	14	346	0	1	0	;
	263	280	5.0	11	14	347	0	1	0	;
	263	283	5.0	12	14	348	0	1	0	;
	264	284	5.0	13	14	349	0	1	0	;
	265	282	5.0	14	14	350	0	1	0	;
	265	285	5.0	15	14	351	0	1	0	;
	266	283	5.0	16	14	352	0	1	0	;
	266	286	5.0	17	14	353	0	1	0	;
	267	284	5.0	18	14	354	0	1	0	;
	267	287	5.0	19	14	355	0	1	0	;
	268	288	5.0	20	14	356	0	1	0	;
	269	286	5.0	21	14	357	0	1	0	;
	270	287	5.0	22	14	358	0	1	0	;
	271	288	5.0	23	14	359	0	1	0	;
	273	290	5.0	0	15	360	0	1	0	;
	273	293	5.0	1	15	361	0	1	0	;
	274	291	5.0	2	15	362	0	1	0	;
	274	294	5.0	3	15	363	0	1	0	;
	275	292	5.0	4	15	364	0	1	0	;
	275	295	5.0	5	15	365	0	1	0	;
	276	296	5.0	6	15	366	0	1	0	;
	277	294	5.0	7	15	367	0	1	0	;
	277	297	5.0	8	15	368	0	1	0	;
	278	295	5.0	9	15	369	0	1	0	;
	278	298	5.0	10	15	370	0	1	0	;
	279	296	5.0	11	15	371	0	1	0	;
	279	299	5.0	12	15	372	0	1	0	;
	280	300	5.0	13	15	373	0	1	0	;
	281	298	5.0	14	15	374	0	1	0	;
	281	301	5.0	15	15	375	0	1	0	;
	282	299	5.0	16	15	376	0	1	0	;
	282	302	5.0	17	15	377	0	1	0	;
	283	300	5.0	18	15	378	0	1	0	;
	283	303	5.0	19	15	379	0	1	0	;
	284	304	5.0	20	15	380	0	1	0	;
	285	302	5.0	21	15	381	0	1	0	;
	286	303	5.0	22	15	382	0	1	0	;
	287	304	5.0	23	15	383	0	1	0	;
	289	306	5.0	0	16	384	0	1	0	;
	289	309	5.0	1	16	385	0	1	0	;
	290	307	5.0	2	16	386	0	1	0	;
	290	310	5.0	3	16	387	0	1	0	;
	291	308	5.0	4	16	388	0	1	0	;
	291	311	5.0	5	16	389	0	1	0	;
	292	312	5.0	6	16	390	0	1	0	;
	293	310	5.0	7	16	391	0	1	0	;
	293	313	5.0	8	16	392	0	1	0	;
	294	311	5.0	9	16	393	0	1	0	;
	294	314	5.0	10	16	394	0	1	0	;
	295	312	5.0	11	16	395	0	1	0	;
	295	315	5.0	12	16	396	0	1	0	;
	296	316	5.0	13	16	397	0	1	0	;
	297	314	5.0	14	16	398	0	1	0	;
	297	317	5.0	15	16	399	0	1	0	;
	298	315	5.0	16	16	400	0	1	0	;
	298	318	5.0	17	16	401	0	1	0	;
	299	316	5.0	18	16	402	0	1	0	;
	299	319	5.0	19	16	403	0	1	0	;
	300	320	5.0	20	16	404	0	1	0	;
	301	318	5.0	21	16	405	0	1	0	;
	302	319	5.0	22	16	406	0	1	0	;
	303	320	5.0	23	16	407	0	1	0	;
	305	322	5.0	0	17	408	0	1	0	;
	305	325	5.0	1	17	409	0	1	0	;
	306	323	5.0	2	17	410	0	1	0	;
	306	326	5.0	3	17	411	0	1	0	;
	307	324	5.0	4	17	412	0	1	0	;
	307	327	5.0	5	17	413	0	1	0	;
	308	328	5.0	6	17	414	0	1	0	;
	309	326	5.0	7	17	415	0	1	0	;
	309	329	5.0	8	17	416	0	1	0	;
	310	327	5.0	9	17	417	0	1	0	;
	310	330	5.0	10	17	418	0	1	0	;
	311	328	5.0	11	17	419	0	1	0	;
	311	331	5.0	12	17	420	0	1	0	;
	312	332	5.0	13	17	421	0	1	0	;
	313	330	5.0	14	17	422	0	1	0	;
	313	333	5.0	15	17	423	0	1	0	;
	314	331	5.0	16	17	424	0	1	0	;
	314	334	5.0	17	17	425	0	1	0	;
	315	332	5.0	18	17	426	0	1	0	;
	315	335	5.0	19	17	427	0	1	0	;
	316	336	5.0	20	17	428	0	1	0	;
	317	334	5.0	21	17	429	0	1	0	;
	318	335	5.0	22	17	430	0	1	0	;
	319	336	5.0	23	17	431	0	1	0	;
	321	338	5.0	0	18	432	0	1	0	;
	321	341	5.0	1	18	433	0	1	0	;
	322	339	5.0	2	18	434	0	1	0	;
	322	342	5.0	3	18	435	0	1	0	;
	323	340	5.0	4	18	436	0	1	0	;
	323	343	5.0	5	18	437	0	1	0	;
	324	344	5.0	6	18	438	0	1	0	;
	325	342	5.0	7	18	439	0	1	0	;
	325	345	5.0	8	18	440	0	1	0	;
	326	343	5.0	9	18	441	0	1	0	;
	326	346	5.0	10	18	442	0	1	0	;
	327	344	5.0	11	18	443	0	1	0	;
	327	347	5.0	12	18	444	0	1	0	;
	328	348	5.0	13	18	445	0	1	0	;
	329	346	5.0	14	18	446	0	1	0	;
	329	349	5.0	15	18	447	0	1	0	;
	330	347	5.0	16	18	448	0	1	0	;
	330	350	5.0	17	18	449	0	1	0	;
	331	348	5.0	18	18	450	0	1	0	;
	331	351	5.0	19	18	451	0	1	0	;
	332	352	5.0	20	18	452	0	1	0	;
	333	350	5.0	21	18	453	0	1	0	;
	334	351	5.0	22	18	454	0	1	0	;
	335	352	5.0	23	18	455	0	1	0	;
	353	370	6.0	0	0	0	1	1	1	;
	353	373	6.0	1	0	1	1	1	1	;
	354	371	6.0	2	0	2	1	1	1	;
	354	374	6.0	3	0	3	1	1	1	;
	355	372	6.0	4	0	4	1	1	1	;
	355	375	6.0	5	0	5	1	1	1	;
	356	376	6.0	6	0	6	1	1	1	;
	357	374	6.0	7	0	7	1	1	1	;
	357	377	6.0	8	0	8	1	1	1	;
	358	375	6.0	9	0	9	1	1	1	;
	358	378	6.0	10	0	10	1	1	1	;
	359	376	6.0	11	0	11	1	1	1	;
	359	379	6.0	12	0	12	1	1	1	;
	360	380	6.0	13	0	13	1	1	1	;
	361	378	6.0	14	0	14	1	1	1	;
	361	381	6.0	15	0	15	1	1	1	;
	362	379	6.0	16	0	16	1	1	1	;
	362	382	6.0	17	0	17	1	1	1	;
	363	380	6.0	18	0	18	1	1	1	;
	363	383	6.0	19	0	19	1	1	1	;
	364	384	6.0	20	0	20	1	1	1	;
	365	382	6.0	21	0	21	1	1	1	;
	366	383	6.0	22	0	22	1	1	1	;
	367	384	6.0	23	0	23	1	1	1	;
	369	386	6.0	0	1	24	1	1	1	;
	369	389	6.0	1	1	25	1	1	1	;
	370	387	6.0	2	1	26	1	1	1	;
	370	390	6.0	3	1	27	1	1	1	;
	371	388	6.0	4	1	28	1	1	1	;
	371	391	6.0	5	1	29	1	1	1	;
	372	392	6.0	6	1	30	1	1	1	;
	373	390	6.0	7	1	31	1	1	1	;
	373	393	6.0	8	1	32	1	1	1	;
	374	391	6.0	9	1	33	1	1	1	;
	374	394	6.0	10	1	34	1	1	1	;
	375	392	6.0	11	1	35	1	1	1	;
	375	395	6.0	12	1	36	1	1	1	;
	376	396	6.0	13	1	37	1	1	1	;
	377	394	6.0	14	1	38	1	1	1	;
	377	397	6.0	15	1	39	1	1	1	;
	378	395	6.0	16	1	40	1	1	1	;
	378	398	6.0	17	1	41	1	1	1	;
	379	396	6.0	18	1	42	1	1	1	;
	379	399	6.0	19	1	43	1	1	1	;
	380	400	6.0	20	1	44	1	1	1	;
	381	398	6.0	21	1	45	1	1	1	;
	382	399	6.0	22	1	46	1	1	1	;
	383	400	6.0	23	1	47	1	1	1	;
	385	402	6.0	0	2	48	1	1	1	;
	385	405	6.0	1	2	49	1	1	1	;
	386	403	6.0	2	2	50	1	1	1	;
	386	406	6.0	3	2	51	1	1	1	;
	387	404	6.0	4	2	52	1	1	1	;
	387	407	6.0	5	2	53	1	1	1	;
	388	408	6.0	6	2	54	1	1	1	;
	389	406	6.0	7	2	55	1	1	1	;
	389	409	6.0	8	2	56	1	1	1	;
	390	407	6.0	9	2	57	1	1	1	;
	390	410	6.0	10	2	58	1	1	1	;
	391	408	6.0	11	2	59	1	1	1	;
	391	411	6.0	12	2	60	1	1	1	;
	392	412	6.0	13	2	61	1	1	1	;
	393	410	6.0	14	2	62	1	1	1	;
	393	413	6.0	15	2	63	1	1	1	;
	394	411	6.0	16	2	64	1	1	1	;
	394	414	6.0	17	2	65	1	1	1	;
	395	412	6.0	18	2	66	1	1	1	;
	395	415	6.0	19	2	67	1	1	1	;
	396	416	6.0	20	2	68	1	1	1	;
	397	414	6.0	21	2	69	1	1	1	;
	398	415	6.0	22	2	70	1	1	1	;
	399	416	6.0	23	2	71	1	1	1	;
	401	418	6.0	0	3	72	1	1	1	;
	401	421	6.0	1	3	73	1	1	1	;
	402	419	6.0	2	3	74	1	1	1	;
	402	422	6.0	3	3	75	1	1	1	;
	403	420	6.0	4	3	76	1	1	1	;
	403	423	6.0	5	3	77	1	1	1	;
	404	424	6.0	6	3	78	1	1	1	;
	405	422	6.0	7	3	79	1	1	1	;
	405	425	6.0	8	3	80	1	1	1	;
	406	423	6.0	9	3	81	1	1	1	;
	406	426	6.0	10	3	82	1	1	1	;
	407	424	6.0	11	3	83	1	1	1	;
	407	427	6.0	12	3	84	1	1	1	;
	408	428	6.0	13	3	85	1	1	1	;
	409	426	6.0	14	3	86	1	1	1	;
	409	429	6.0	15	3	87	1	1	1	;
	410	427	6.0	16	3	88	1	1	1	;
	410	430	6.0	17	3	89	1	1	1	;
	411	428	6.0	18	3	90	1	1	1	;
	411	431	6.0	19	3	91	1	1	1	;
	412	432	6.0	20	3	92	1	1	1	;
	413	430	6.0	21	3	93	1	1	1	;
	414	431	6.0	22	3	94	1	1	1	;
	415	432	6.0	23	3	95	1	1	1	;
	417	434	6.0	0	4	96	1	1	1	;
	417	437	6.0	1	4	97	1	1	1	;
	418	435	6.0	2	4	98	1	1	1	;
	418	438	6.0	3	4	99	1	1	1	;
	419	436	6.0	4	4	100	1	1	1	;
	419	439	6.0	5	4	101	1	1	1	;
	420	440	6.0	6	4	102	1	1	1	;
	421	438	6.0	7	4	103	1	1	1	;
	421	441	6.0	8	4	104	1	1	1	;
	422	439	6.0	9	4	105	1	1	1	;
	422	442	6.0	10	4	106	1	1	1	;
	423	440	6.0	11	4	107	1	1	1	;
	423	443	6.0	12	4	108	1	1	1	;
	424	444	6.0	13	4	109	1	1	1	;
	425	442	6.0	14	4	110	1	1	1	;
	425	445	6.0	15	4	111	1	1	1	;
	426	443	6.0	16	4	112	1	1	1	;
	426	446	6.0	17	4	113	1	1	1	;
	427	444	6.0	18	4	114	1	1	1	;
	427	447	6.0	19	4	115	1	1	1	;
	428	448	6.0	20	4	116	1	1	1	;
	429	446	6.0	21	4	117	1	1	1	;
	430	447	6.0	22	4	118	1	1	1	;
	431	448	6.0	23	4	119	1	1	1	;
	433	450	6.0	0	5	120	1	1	1	;
	433	453	6.0	1	5	121	1	1	1	;
	434	451	6.0	2	5	122	1	1	1	;
	434	454	6.0	3	5	123	1	1	1	;
	435	452	6.0	4	5	124	1	1	1	;
	435	455	6.0	5	5	125	1	1	1	;
	436	456	6.0	6	5	126	1	1	1	;
	437	454	6.0	7	5	127	1	1	1	;
	437	457	6.0	8	5	128	1	1	1	;
	438	455	6.0	9	5	129	1	1	1	;
	438	458	6.0	10	5	130	1	1	1	;
	439	456	6.0	11	5	131	1	1	1	;
	439	459	6.0	12	5	132	1	1	1	;
	440	460	6.0	13	5	133	1	1	1	;
	441	458	6.0	14	5	134	1	1	1	;
	441	461	6.0	15	5	135	1	1	1	;
	442	459	6.0	16	5	136	1	1	1	;
	442	462	6.0	17	5	137	1	1	1	;
	443	460	6.0	18	5	138	1	1	1	;
	443	463	6.0	19	5	139	1	1	1	;
	444	464	6.0	20	5	140	1	1	1	;
	445	462	6.0	21	5	141	1	1	1	;
	446	463	6.0	22	5	142	1	1	1	;
	447	464	6.0	23	5	143	1	1	1	;
	449	466	6.0	0	6	144	1	1	1	;
	449	469	6.0	1	6	145	1	1	1	;
	450	467	6.0	2	6	146	1	1	1	;
	450	470	6.0	3	6	147	1	1	1	;
	451	468	6.0	4	6	148	1	1	1	;
	451	471	6.0	5	6	149	1	1	1	;
	452	472	6.0	6	6	150	1	1	1	;
	453	470	6.0	7	6	151	1	1	1	;
	453	473	6.0	8	6	152	1	1	1	;
	454	471	6.0	9	6	153	1	1	1	;
	454	474	6.0	10	6	154	1	1	1	;
	455	472	6.0	11	6	155	1	1	1	;
	455	475	6.0	12	6	156	1	1	1	;
	456	476	6.0	13	6	157	1	1	1	;
	457	474	6.0	14	6	158	1	1	1	;
	457	477	6.0	15	6	159	1	1	1	;
	458	475	6.0	16	6	160	1	1	1	;
	458	478	6.0	17	6	161	1	1	1	;
	459	476	6.0	18	6	162	1	1	1	;
	459	479	6.0	19	6	163	1	1	1	;
	460	480	6.0	20	6	164	1	1	1	;
	461	478	6.0	21	6	165	1	1	1	;
	462	479	6.0	22	6	166	1	1	1	;
	463	480	6.0	23	6	167	1	1	1	;
	465	482	6.0	0	7	168	1	1	1	;
	465	485	6.0	1	7	169	1	1	1	;
	466	483	6.0	2	7	170	1	1	1	;
	466	486	6.0	3	7	171	1	1	1	;
	467	484	6.0	4	7	172	1	1	1	;
	467	487	6.0	5	7	173	1	1	1	;
	468	488	6.0	6	7	174	1	1	1	;
	469	486	6.0	7	7	175	1	1	1	;
	469	489	6.0	8	7	176	1	1	1	;
	470	487	6.0	9	7	177	1	1	1	;
	470	490	6.0	10	7	178	1	1	1	;
	471	488	6.0	11	7	179	1	1	1	;
	471	491	6.0	12	7	180	1	1	1	;
	472	492	6.0	13	7	181	1	1	1	;
	473	490	6.0	14	7	182	1	1	1	;
	473	493	6.0	15	7	183	1	1	1	;
	474	491	6.0	16	7	184	1	1	1	;
	474	494	6.0	17	7	185	1	1	1	;
	475	492	6.0	18	7	186	1	1	1	;
	475	495	6.0	19	7	187	1	1	1	;
	476	496	6.0	20	7	188	1	1	1	;
	477	494	6.0	21	7	189	1	1	1	;
	478	495	6.0	22	7	190	1	1	1	;
	479	496	6.0	23	7	191	1	1	1	;
	481	498	6.0	0	8	192	1	1	1	;
	481	501	6.0	1	8	193	1	1	1	;
	482	499	6.0	2	8	194	1	1	1	;
	482	502	6.0	3	8	195	1	1	1	;
	483	500	6.0	4	8	196	1	1	1	;
	483	503	6.0	5	8	197	1	1	1	;
	484	504	6.0	6	8	198	1	1	1	;
	485	502	6.0	7	8	199	1	1	1	;
	485	505	6.0	8	8	200	1	1	1	;
	486	503	6.0	9	8	201	1	1	1	;
	486	506	6.0	10	8	202	1	1	1	;
	487	504	6.0	11	8	203	1	1	1	;
	487	507	6.0	12	8	204	1	1	1	;
	488	508	6.0	13	8	205	1	1	1	;
	489	506	6.0	14	8	206	1	1	1	;
	489	509	6.0	15	8	207	1	1	1	;
	490	507	6.0	16	8	208	1	1	1	;
	490	510	6.0	17	8	209	1	1	1	;
	491	508	6.0	18	8	210	1	1	1	;
	491	511	6.0	19	8	211	1	1	1	;
	492	512	6.0	20	8	212	1	1	1	;
	493	510	6.0	21	8	213	1	1	1	;
	494	511	6.0	22	8	214	1	1	1	;
	495	512	6.0	23	8	215	1	1	1	;
	497	514	6.0	0	9	216	1	1	1	;
	497	517	6.0	1	9	217	1	1	1	;
	498	515	6.0	2	9	218	1	1	1	;
	498	518	6.0	3	9	219	1	1	1	;
	499	516	6.0	4	9	220	1	1	1	;
	499	519	6.0	5	9	221	1	1	1	;
	500	520	6.0	6	9	222	1	1	1	;
	501	518	6.0	7	9	223	1	1	1	;
	501	521	6.0	8	9	224	1	1	1	;
	502	519	6.0	9	9	225	1	1	1	;
	502	522	6.0	10	9	226	1	1	1	;
	503	520	6.0	11	9	227	1	1	1	;
	503	523	6.0	12	9	228	1	1	1	;
	504	524	6.0	13	9	229	1	1	1	;
	505	522	6.0	14	9	230	1	1	1	;
	505	525	6.0	15	9	231	1	1	1	;
	506	523	6.0	16	9	232	1	1	1	;
	506	526	6.0	17	9	233	1	1	1	;
	507	524	6.0	18	9	234	1	1	1	;
	507	527	6.0	19	9	235	1	1	1	;
	508	528	6.0	20	9	236	1	1	1	;
	509	526	6.0	21	9	237	1	1	1	;
	510	527	6.0	22	9	238	1	1	1	;
	511	528	6.0	23	9	239	1	1	1	;
	513	530	6.0	0	10	240	1	1	1	;
	513	533	6.0	1	10	241	1	1	1	;
	514	531	6.0	2	10	242	1	1	1	;
	514	534	6.0	3	10	243	1	1	1	;
	515	532	6.0	4	10	244	1	1	1	;
	515	535	6.0	5	10	245	1	1	1	;
	516	536	6.0	6	10	246	1	1	1	;
	517	534	6.0	7	10	247	1	1	1	;
	517	537	6.0	8	10	248	1	1	1	;
	518	535	6.0	9	10	249	1	1	1	;
	518	538	6.0	10	10	250	1	1	1	;
	519	536	6.0	11	10	251	1	1	1	;
	519	539	6.0	12	10	252	1	1	1	;
	520	540	6.0	13	10	253	1	1	1	;
	521	538	6.0	14	10	254	1	1	1	;
	521	541	6.0	15	10	255	1	1	1	;
	522	539	6.0	16	10	256	1	1	1	;
	522	542	6.0	17	10	257	1	1	1	;
	523	540	6.0	18	10	258	1	1	1	;
	523	543	6.0	19	10	259	1	1	1	;
	524	544	6.0	20	10	260	1	1	1	;
	525	542	6.0	21	10	261	1	1	1	;
	526	543	6.0	22	10	262	1	1	1	;
	527	544	6.0	23	10	263	1	1	1	;
	529	546	6.0	0	11	264	1	1	1	;
	529	549	6.0	1	11	265	1	1	1	;
	530	547	6.0	2	11	266	1	1	1	;
	530	550	6.0	3	11	267	1	1	1	;
	531	548	6.0	4	11	268	1	1	1	;
	531	551	6.0	5	11	269	1	1	1	;
	532	552	6.0	6	11	270	1	1	1	;
	533	550	6.0	7	11	271	1	1	1	;
	533	553	6.0	8	11	272	1	1	1	;
	534	551	6.0	9	11	273	1	1	1	;
	534	554	6.0	10	11	274	1	1	1	;
	535	552	6.0	11	11	275	1	1	1	;
	535	555	6.0	12	11	276	1	1	1	;
	536	556	6.0	13	11	277	1	1	1	;
	537	554	6.0	14	11	278	1	1	1	;
	537	557	6.0	15	11	279	1	1	1	;
	538	555	6.0	16	11	280	1	1	1	;
	538	558	6.0	17	11	281	1	1	1	;
	539	556	6.0	18	11	282	1	1	1	;
	539	559	6.0	19	11	283	1	1	1	;
	540	560	6.0	20	11	284	1	1	1	;
	541	558	6.0	21	11	285	1	1	1	;
	542	559	6.0	22	11	286	1	1	1	;
	543	560	6.0	23	11	287	1	1	1	;
	545	562	6.0	0	12	288	1	1	1	;
	545	565	6.0	1	12	289	1	1	1	;
	546	563	6.0	2	12	290	1	1	1	;
	546	566	6.0	3	12	291	1	1	1	;
	547	564	6.0	4	12	292	1	1	1	;
	547	567	6.0	5	12	293	1	1	1	;
	548	568	6.0	6	12	294	1	1	1	;
	549	566	6.0	7	12	295	1	1	1	;
	549	569	6.0	8	12	296	1	1	1	;
	550	567	6.0	9	12	297	1	1	1	;
	550	570	6.0	10	12	298	1	1	1	;
	551	568	6.0	11	12	299	1	1	1	;
	551	571	6.0	12	12	300	1	1	1	;
	552	572	6.0	13	12	301	1	1	1	;
	553	570	6.0	14	12	302	1	1	1	;
	553	573	6.0	15	12	303	1	1	1	;
	554	571	6.0	16	12	304	1	1	1	;
	554	574	6.0	17	12	305	1	1	1	;
	555	572	6.0	18	12	306	1	1	1	;
	555	575	6.0	19	12	307	1	1	1	;
	556	576	6.0	20	12	308	1	1	1	;
	557	574	6.0	21	12	309	1	1	1	;
	558	575	6.0	22	12	310	1	1	1	;
	559	576	6.0	23	12	311	1	1	1	;
	561	578	6.0	0	13	312	1	1	1	;
	561	581	6.0	1	13	313	1	1	1	;
	562	579	6.0	2	13	314	1	1	1	;
	562	582	6.0	3	13	315	1	1	1	;
	563	580	6.0	4	13	316	1	1	1	;
	563	583	6.0	5	13	317	1	1	1	;
	564	584	6.0	6	13	318	1	1	1	;
	565	582	6.0	7	13	319	1	1	1	;
	565	585	6.0	8	13	320	1	1	1	;
	566	583	6.0	9	13	321	1	1	1	;
	566	586	6.0	10	13	322	1	1	1	;
	567	584	6.0	11	13	323	1	1	1	;
	567	587	6.0	12	13	324	1	1	1	;
	568	588	6.0	13	13	325	1	1	1	;
	569	586	6.0	14	13	326	1	1	1	;
	569	589	6.0	15	13	327	1	1	1	;
	570	587	6.0	16	13	328	1	1	1	;
	570	590	6.0	17	13	329	1	1	1	;
	571	588	6.0	18	13	330	1	1	1	;
	571	591	6.0	19	13	331	1	1	1	;
	572	592	6.0	20	13	332	1	1	1	;
	573	590	6.0	21	13	333	1	1	1	;
	574	591	6.0	22	13	334	1	1	1	;
	575	592	6.0	23	13	335	1	1	1	;
	577	594	6.0	0	14	336	1	1	1	;
	577	597	6.0	1	14	337	1	1	1	;
	578	595	6.0	2	14	338	1	1	1	;
	578	598	6.0	3	14	339	1	1	1	;
	579	596	6.0	4	14	340	1	1	1	;
	579	599	6.0	5	14	341	1	1	1	;
	580	600	6.0	6	14	342	1	1	1	;
	581	598	6.0	7	14	343	1	1	1	;
	581	601	6.0	8	14	344	1	1	1	;
	582	599	6.0	9	14	345	1	1	1	;
	582	602	6.0	10	14	346	1	1	1	;
	583	600	6.0	11	14	347	1	1	1	;
	583	603	6.0	12	14	348	1	1	1	;
	584	604	6.0	13	14	349	1	1	1	;
	585	602	6.0	14	14	350	1	1	1	;
	585	605	6.0	15	14	351	1	1	1	;
	586	603	6.0	16	14	352	1	1	1	;
	586	606	6.0	17	14	353	1	1	1	;
	587	604	6.0	18	14	354	1	1	1	;
	587	607	6.0	19	14	355	1	1	1	;
	588	608	6.0	20	14	356	1	1	1	;
	589	606	6.0	21	14	357	1	1	1	;
	590	607	6.0	22	14	358	1	1	1	;
	591	608	6.0	23	14	359	1	1	1	;
	593	610	6.0	0	15	360	1	1	1	;
	593	613	6.0	1	15	361	1	1	1	;
	594	611	6.0	2	15	362	1	1	1	;
	594	614	6.0	3	15	363	1	1	1	;
	595	612	6.0	4	15	364	1	1	1	;
	595	615	6.0	5	15	365	1	1	1	;
	596	616	6.0	6	15	366	1	1	1	;
	597	614	6.0	7	15	367	1	1	1	;
	597	617	6.0	8	15	368	1	1	1	;
	598	615	6.0	9	15	369	1	1	1	;
	598	618	6.0	10	15	370	1	1	1	;
	599	616	6.0	11	15	371	1	1	1	;
	599	619	6.0	12	15	372	1	1	1	;
	600	620	6.0	13	15	373	1	1	1	;
	601	618	6.0	14	15	374	1	1	1	;
	601	621	6.0	15	15	375	1	1	1	;
	602	619	6.0	16	15	376	1	1	1	;
	602	622	6.0	17	15	377	1	1	1	;
	603	620	6.0	18	15	378	1	1	1	;
	603	623	6.0	19	15	379	1	1	1	;
	604	624	6.0	20	15	380	1	1	1	;
	605	622	6.0	21	15	381	1	1	1	;
	606	623	6.0	22	15	382	1	1	1	;
	607	624	6.0	23	15	383	1	1	1	;
	609	626	6.0	0	16	384	1	1	1	;
	609	629	6.0	1	16	385	1	1	1	;
	610	627	6.0	2	16	386	1	1	1	;
	610	630	6.0	3	16	387	1	1	1	;
	611	628	6.0	4	16	388	1	1	1	;
	611	631	6.0	5	16	389	1	1	1	;
	612	632	6.0	6	16	390	1	1	1	;
	613	630	6.0	7	16	391	1	1	1	;
	613	633	6.0	8	16	392	1	1	1	;
	614	631	6.0	9	16	393	1	1	1	;
	614	634	6.0	10	16	394	1	1	1	;
	615	632	6.0	11	16	395	1	1	1	;
	615	635	6.0	12	16	396	1	1	1	;
	616	636	6.0	13	16	397	1	1	1	;
	617	634	6.0	14	16	398	1	1	1	;
	617	637	6.0	15	16	399	1	1	1	;
	618	635	6.0	16	16	400	1	1	1	;
	618	638	6.0	17	16	401	1	1	1	;
	619	636	6.0	18	16	402	1	1	1	;
	619	639	6.0	19	16	403	1	1	1	;
	620	640	6.0	20	16	404	1	1	1	;
	621	638	6.0	21	16	405	1	1	1	;
	622	639	6.0	22	16	406	1	1	1	;
	623	640	6.0	23	16	407	1	1	1	;
	625	642	6.0	0	17	408	1	1	1	;
	625	645	6.0	1	17	409	1	1	1	;
	626	643	6.0	2	17	410	1	1	1	;
	626	646	6.0	3	17	411	1	1	1	;
	627	644	6.0	4	17	412	1	1	1	;
	627	647	6.0	5	17	413	1	1	1	;
	628	648	6.0	6	17	414	1	1	1	;
	629	646	6.0	7	17	415	1	1	1	;
	629	649	6.0	8	17	416	1	1	1	;
	630	647	6.0	9	17	417	1	1	1	;
	630	650	6.0	10	17	418	1	1	1	;
	631	648	6.0	11	17	419	1	1	1	;
	631	651	6.0	12	17	420	1	1	1	;
	632	652	6.0	13	17	421	1	1	1	;
	633	650	6.0	14	17	422	1	1	1	;
	633	653	6.0	15	17	423	1	1	1	;
	634	651	6.0	16	17	424	1	1	1	;
	634	654	6.0	17	17	425	1	1	1	;
	635	652	6.0	18	17	426	1	1	1	;
	635	655	6.0	19	17	427	1	1	1	;
	636	656	6.0	20	17	428	1	1	1	;
	637	654	6.0	21	17	429	1	1	1	;
	638	655	6.0	22	17	430	1	1	1	;
	639	656	6.0	23	17	431	1	1	1	;
	641	658	6.0	0	18	432	1	1	1	;
	641	661	6.0	1	18	433	1	1	1	;
	642	659	6.0	2	18	434	1	1	1	;
	642	662	6.0	3	18	435	1	1	1	;
	643	660	6.0	4	18	436	1	1	1	;
	643	663	6.0	5	18	437	1	1	1	;
	644	664	6.0	6	18	438	1	1	1	;
	645	662	6.0	7	18	439	1	1	1	;
	645	665	6.0	8	18	440	1	1	1	;
	646	663	6.0	9	18	441	1	1	1	;
	646	666	6.0	10	18	442	1	1	1	;
	647	664	6.0	11	18	443	1	1	1	;
	647	667	6.0	12	18	444	1	1	1	;
	648	668	6.0	13	18	445	1	1	1	;
	649	666	6.0	14	18	446	1	1	1	;
	649	669	6.0	15	18	447	1	1	1	;
	650	667	6.0	16	18	448	1	1	1	;
	650	670	6.0	17	18	449	1	1	1	;
	651	668	6.0	18	18	450	1	1	1	;
	651	671	6.0	19	18	451	1	1	1	;
	652	672	6.0	20	18	452	1	1	1	;
	653	670	6.0	21	18	453	1	1	1	;
	654	671	6.0	22	18	454	1	1	1	;
	655	672	6.0	23	18	455	1	1	1	;
	1	17	50.0	-1	-1	-1	-1	-1	0	;
	1	18	50.0	-1	-1	-1	-1	-1	0	;
	1	19	50.0	-1	-1	-1	-1	-1	0	;
	1	20	50.0	-1	-1	-1	-1	-1	0	;
	1	21	50.0	-1	-1	-1	-1	-1	0	;
	1	22	50.0	-1	-1	-1	-1	-1	0	;
	1	23	50.0	-1	-1	-1	-1	-1	0	;
	1	24	50.0	-1	-1	-1	-1	-1	0	;
	1	25	50.0	-1	-1	-1	-1	-1	0	;
	1	26	50.0	-1	-1	-1	-1	-1	0	;
	1	27	50.0	-1	-1	-1	-1	-1	0	;
	1	28	50.0	-1	-1	-1	-1	-1	0	;
	1	29	50.0	-1	-1	-1	-1	-1	0	;
	1	30	50.0	-1	-1	-1	-1	-1	0	;
	1	31	50.0	-1	-1	-1	-1	-1	0	;
	1	32	50.0	-1	-1	-1	-1	-1	0	;
	2	17	50.0	-1	-1	-1	-1	-1	0	;
	2	18	50.0	-1	-1	-1	-1	-1	0	;
	2	19	50.0	-1	-1	-1	-1	-1	0	;
	2	20	50.0	-1	-1	-1	-1	-1	0	;
	2	21	50.0	-1	-1	-1	-1	-1	0	;
	2	22	50.0	-1	-1	-1	-1	-1	0	;
	2	23	50.0	-1	-1	-1	-1	-1	0	;
	2	24	50.0	-1	-1	-1	-1	-1	0	;
	2	25	50.0	-1	-1	-1	-1	-1	0	;
	2	26	50.0	-1	-1	-1	-1	-1	0	;
	2	27	50.0	-1	-1	-1	-1	-1	0	;
	2	28	50.0	-1	-1	-1	-1	-1	0	;
	2	29	50.0	-1	-1	-1	-1	-1	0	;
	2	30	50.0	-1	-1	-1	-1	-1	0	;
	2	31	50.0	-1	-1	-1	-1	-1	0	;
	2	32	50.0	-1	-1	-1	-1	-1	0	;
	3	17	50.0	-1	-1	-1	-1	-1	0	;
	3	18	50.0	-1	-1	-1	-1	-1	0	;
	3	19	50.0	-1	-1	-1	-1	-1	0	;
	3	20	50.0	-1	-1	-1	-1	-1	0	;
	3	21	50.0	-1	-1	-1	-1	-1	0	;
	3	22	50.0	-1	-1	-1	-1	-1	0	;
	3	23	50.0	-1	-1	-1	-1	-1	0	;
	3	24	50.0	-1	-1	-1	-1	-1	0	;
	3	25	50.0	-1	-1	-1	-1	-1	0	;
	3	26	50.0	-1	-1	-1	-1	-1	0	;
	3	27	50.0	-1	-1	-1	-1	-1	0	;
	3	28	50.0	-1	-1	-1	-1	-1	0	;
	3	29	50.0	-1	-1	-1	-1	-1	0	;
	3	30	50.0	-1	-1	-1	-1	-1	0	;
	3	31	50.0	-1	-1	-1	-1	-1	0	;
	3	32	50.0	-1	-1	-1	-1	-1	0	;
	4	17	50.0	-1	-1	-1	-1	-1	0	;
	4	18	50.0	-1	-1	-1	-1	-1	0	;
	4	19	50.0	-1	-1	-1	-1	-1	0	;
	4	20	50.0	-1	-1	-1	-1	-1	0	;
	4	21	50.0	-1	-1	-1	-1	-1	0	;
	4	22	50.0	-1	-1	-1	-1	-1	0	;
	4	23	50.0	-1	-1	-1	-1	-1	0	;
	4	24	50.0	-1	-1	-1	-1	-1	0	;
	4	25	50.0	-1	-1	-1	-1	-1	0	;
	4	26	50.0	-1	-1	-1	-1	-1	0	;
	4	27	50.0	-1	-1	-1	-1	-1	0	;
	4	28	50.0	-1	-1	-1	-1	-1	0	;
	4	29	50.0	-1	-1	-1	-1	-1	0	;
	4	30	50.0	-1	-1	-1	-1	-1	0	;
	4	31	50.0	-1	-1	-1	-1	-1	0	;
	4	32	50.0	-1	-1	-1	-1	-1	0	;
	5	17	50.0	-1	-1	-1	-1	-1	0	;
	5	18	50.0	-1	-1	-1	-1	-1	0	;
	5	19	50.0	-1	-1	-1	-1	-1	0	;
	5	20	50.0	-1	-1	-1	-1	-1	0	;
	5	21	50.0	-1	-1	-1	-1	-1	0	;
	5	22	50.0	-1	-1	-1	-1	-1	0	;
	5	23	50.0	-1	-1	-1	-1	-1	0	;
	5	24	50.0	-1	-1	-1	-1	-1	0	;
	5	25	50.0	-1	-1	-1	-1	-1	0	;
	5	26	50.0	-1	-1	-1	-1	-1	0	;
	5	27	50.0	-1	-1	-1	-1	-1	0	;
	5	28	50.0	-1	-1	-1	-1	-1	0	;
	5	29	50.0	-1	-1	-1	-1	-1	0	;
	5	30	50.0	-1	-1	-1	-1	-1	0	;
	5	31	50.0	-1	-1	-1	-1	-1	0	;
	5	32	50.0	-1	-1	-1	-1	-1	0	;
	6	17	50.0	-1	-1	-1	-1	-1	0	;
	6	18	50.0	-1	-1	-1	-1	-1	0	;
	6	19	50.0	-1	-1	-1	-1	-1	0	;
	6	20	50.0	-1	-1	-1	-1	-1	0	;
	6	21	50.0	-1	-1	-1	-1	-1	0	;
	6	22	50.0	-1	-1	-1	-1	-1	0	;
	6	23	50.0	-1	-1	-1	-1	-1	0	;
	6	24	50.0	-1	-1	-1	-1	-1	0	;
	6	25	50.0	-1	-1	-1	-1	-1	0	;
	6	26	50.0	-1	-1	-1	-1	-1	0	;
	6	27	50.0	-1	-1	-1	-1	-1	0	;