<NUMBER OF ZONES> 72
<TOTAL OD FLOW> 100000.0
<END OF METADATA>



Origin  1
	37 :	88.0;	38 :	50.0;	39 :	111.0;	40 :	138.0;	41 :	5.0;
	42 :	16.0;	43 :	143.0;	44 :	109.0;	45 :	118.0;	46 :	134.0;
	47 :	94.0;	48 :	27.0;	49 :	102.0;	50 :	124.0;	51 :	95.0;
	52 :	82.0;	53 :	140.0;	54 :	21.0;	55 :	31.0;	56 :	64.0;
	57 :	122.0;	58 :	1.0;	59 :	12.0;	60 :	5.0;	61 :	41.0;
	62 :	130.0;	63 :	141.0;	64 :	42.0;	65 :	46.0;	66 :	141.0;
	67 :	60.0;	68 :	14.0;	69 :	39.0;	70 :	150.0;	71 :	66.0;
	72 :	87.0;

Origin  2
	37 :	141.0;	38 :	145.0;	39 :	54.0;	40 :	54.0;	41 :	130.0;
	42 :	9.0;	43 :	12.0;	44 :	11.0;	45 :	28.0;	46 :	24.0;
	47 :	52.0;	48 :	89.0;	49 :	33.0;	50 :	34.0;	51 :	143.0;
	52 :	3.0;	53 :	68.0;	54 :	135.0;	55 :	40.0;	56 :	124.0;
	57 :	102.0;	58 :	3.0;	59 :	84.0;	60 :	75.0;	61 :	4.0;
	62 :	51.0;	63 :	69.0;	64 :	149.0;	65 :	70.0;	66 :	91.0;
	67 :	2.0;	68 :	142.0;	69 :	30.0;	70 :	39.0;	71 :	109.0;
	72 :	19.0;

Origin  3
	37 :	41.0;	38 :	41.0;	39 :	48.0;	40 :	74.0;	41 :	13.0;
	42 :	73.0;	43 :	137.0;	44 :	55.0;	45 :	121.0;	46 :	117.0;
	47 :	51.0;	48 :	74.0;	49 :	104.0;	50 :	136.0;	51 :	60.0;
	52 :	78.0;	53 :	60.0;	54 :	65.0;	55 :	108.0;	56 :	65.0;
	57 :	123.0;	58 :	109.0;	59 :	3.0;	60 :	96.0;	61 :	109.0;
	62 :	29.0;	63 :	80.0;	64 :	28.0;	65 :	126.0;	66 :	83.0;
	67 :	67.0;	68 :	148.0;	69 :	40.0;	70 :	136.0;	71 :	29.0;
	72 :	103.0;

Origin  4
	37 :	18.0;	38 :	2.0;	39 :	36.0;	40 :	127.0;	41 :	32.0;
	42 :	57.0;	43 :	91.0;	44 :	20.0;	45 :	40.0;	46 :	97.0;
	47 :	21.0;	48 :	118.0;	49 :	37.0;	50 :	40.0;	51 :	43.0;
	52 :	140.0;	53 :	134.0;	54 :	143.0;	55 :	104.0;	56 :	120.0;
	57 :	35.0;	58 :	58.0;	59 :	78.0;	60 :	115.0;	61 :	72.0;
	62 :	130.0;	63 :	116.0;	64 :	51.0;	65 :	152.0;	66 :	28.0;
	67 :	110.0;	68 :	37.0;	69 :	3.0;	70 :	62.0;	71 :	76.0;
	72 :	28.0;

Origin  5
	37 :	64.0;	38 :	129.0;	39 :	118.0;	40 :	66.0;	41 :	87.0;
	42 :	5.0;	43 :	110.0;	44 :	53.0;	45 :	98.0;	46 :	101.0;
	47 :	35.0;	48 :	98.0;	49 :	99.0;	50 :	87.0;	51 :	115.0;
	52 :	147.0;	53 :	31.0;	54 :	149.0;	55 :	14.0;	56 :	13.0;
	57 :	136.0;	58 :	116.0;	59 :	41.0;	60 :	138.0;	61 :	98.0;
	62 :	18.0;	63 :	21.0;	64 :	137.0;	65 :	146.0;	66 :	77.0;
	67 :	12.0;	68 :	139.0;	69 :	66.0;	70 :	138.0;	71 :	7.0;
	72 :	132.0;

Origin  6
	37 :	31.0;	38 :	121.0;	39 :	25.0;	40 :	91.0;	41 :	45.0;
	42 :	132.0;	43 :	108.0;	44 :	53.0;	45 :	65.0;	46 :	59.0;
	47 :	49.0;	48 :	58.0;	49 :	30.0;	50 :	135.0;	51 :	11.0;
	52 :	25.0;	53 :	25.0;	54 :	28.0;	55 :	18.0;	56 :	122.0;
	57 :	97.0;	58 :	23.0;	59 :	126.0;	60 :	78.0;	61 :	56.0;
	62 :	116.0;	63 :	106.0;	64 :	49.0;	65 :	4.0;	66 :	13.0;
	67 :	47.0;	68 :	68.0;	69 :	54.0;	70 :	139.0;	71 :	143.0;
	72 :	54.0;

Origin  7
	37 :	109.0;	38 :	74.0;	39 :	9.0;	40 :	52.0;	41 :	4.0;
	42 :	52.0;	43 :	42.0;	44 :	85.0;	45 :	112.0;	46 :	122.0;
	47 :	59.0;	48 :	150.0;	49 :	131.0;	50 :	38.0;	51 :	110.0;
	52 :	131.0;	53 :	36.0;	54 :	145.0;	55 :	38.0;	56 :	82.0;
	57 :	112.0;	58 :	112.0;	59 :	104.0;	60 :	153.0;	61 :	137.0;
	62 :	147.0;	63 :	37.0;	64 :	10.0;	65 :	91.0;	66 :	10.0;
	67 :	125.0;	68 :	132.0;	69 :	74.0;	70 :	52.0;	71 :	135.0;
	72 :	48.0;

Origin  8
	37 :	85.0;	38 :	149.0;	39 :	96.0;	40 :	108.0;	41 :	140.0;
	42 :	137.0;	43 :	120.0;	44 :	46.0;	45 :	94.0;	46 :	5.0;
	47 :	136.0;	48 :	73.0;	49 :	85.0;	50 :	132.0;	51 :	53.0;
	52 :	74.0;	53 :	97.0;	54 :	26.0;	55 :	30.0;	56 :	100.0;
	57 :	106.0;	58 :	135.0;	59 :	50.0;	60 :	69.0;	61 :	98.0;
	62 :	83.0;	63 :	91.0;	64 :	109.0;	65 :	48.0;	66 :	7.0;
	67 :	18.0;	68 :	14.0;	69 :	44.0;	70 :	109.0;	71 :	79.0;
	72 :	136.0;

Origin  9
	37 :	41.0;	38 :	66.0;	39 :	97.0;	40 :	15.0;	41 :	13.0;
	42 :	48.0;	43 :	93.0;	44 :	96.0;	45 :	82.0;	46 :	62.0;
	47 :	146.0;	48 :	148.0;	49 :	56.0;	50 :	74.0;	51 :	81.0;
	52 :	72.0;	53 :	134.0;	54 :	124.0;	55 :	125.0;	56 :	11.0;
	57 :	73.0;	58 :	147.0;	59 :	148.0;	60 :	112.0;	61 :	127.0;
	62 :	20.0;	63 :	58.0;	64 :	41.0;	65 :	140.0;	66 :	119.0;
	67 :	14.0;	68 :	143.0;	69 :	93.0;	70 :	25.0;	71 :	106.0;
	72 :	152.0;

Origin  10
	37 :	12.0;	38 :	140.0;	39 :	129.0;	40 :	122.0;	41 :	4.0;
	42 :	44.0;	43 :	78.0;	44 :	147.0;	45 :	72.0;	46 :	122.0;
	47 :	14.0;	48 :	88.0;	49 :	144.0;	50 :	20.0;	51 :	1.0;
	52 :	108.0;	53 :	73.0;	54 :	2.0;	55 :	147.0;	56 :	113.0;
	57 :	78.0;	58 :	59.0;	59 :	7.0;	60 :	43.0;	61 :	15.0;
	62 :	79.0;	63 :	48.0;	64 :	75.0;	65 :	89.0;	66 :	44.0;
	67 :	38.0;	68 :	65.0;	69 :	94.0;	70 :	63.0;	71 :	55.0;
	72 :	61.0;

Origin  11
	37 :	11.0;	38 :	141.0;	39 :	34.0;	40 :	103.0;	41 :	79.0;
	42 :	1.0;	43 :	45.0;	44 :	91.0;	45 :	150.0;	46 :	44.0;
	47 :	95.0;	48 :	135.0;	49 :	144.0;	50 :	108.0;	51 :	138.0;
	52 :	95.0;	53 :	126.0;	54 :	65.0;	55 :	56.0;	56 :	23.0;
	57 :	149.0;	58 :	24.0;	59 :	107.0;	60 :	38.0;	61 :	56.0;
	62 :	132.0;	63 :	25.0;	64 :	111.0;	65 :	144.0;	66 :	57.0;
	67 :	30.0;	68 :	11.0;	69 :	95.0;	70 :	27.0;	71 :	18.0;
	72 :	77.0;

Origin  12
	37 :	32.0;	38 :	136.0;	39 :	24.0;	40 :	100.0;	41 :	110.0;
	42 :	139.0;	43 :	44.0;	44 :	58.0;	45 :	33.0;	46 :	86.0;
	47 :	42.0;	48 :	9.0;	49 :	139.0;	50 :	66.0;	51 :	117.0;
	52 :	138.0;	53 :	63.0;	54 :	59.0;	55 :	3.0;	56 :	39.0;
	57 :	132.0;	58 :	111.0;	59 :	92.0;	60 :	44.0;	61 :	131.0;
	62 :	95.0;	63 :	60.0;	64 :	45.0;	65 :	55.0;	66 :	117.0;
	67 :	102.0;	68 :	95.0;	69 :	132.0;	70 :	63.0;	71 :	4.0;
	72 :	87.0;

Origin  13
	37 :	40.0;	38 :	64.0;	39 :	85.0;	40 :	43.0;	41 :	143.0;
	42 :	40.0;	43 :	63.0;	44 :	138.0;	45 :	84.0;	46 :	152.0;
	47 :	86.0;	48 :	120.0;	49 :	82.0;	50 :	37.0;	51 :	132.0;
	52 :	73.0;	53 :	150.0;	54 :	117.0;	55 :	112.0;	56 :	55.0;
	57 :	3.0;	58 :	153.0;	59 :	134.0;	60 :	120.0;	61 :	149.0;
	62 :	118.0;	63 :	111.0;	64 :	1.0;	65 :	62.0;	66 :	151.0;
	67 :	64.0;	68 :	116.0;	69 :	131.0;	70 :	20.0;	71 :	64.0;
	72 :	8.0;

Origin  14
	37 :	28.0;	38 :	144.0;	39 :	73.0;	40 :	141.0;	41 :	11.0;
	42 :	121.0;	43 :	129.0;	44 :	77.0;	45 :	52.0;	46 :	42.0;
	47 :	104.0;	48 :	4.0;	49 :	66.0;	50 :	74.0;	51 :	121.0;
	52 :	52.0;	53 :	95.0;	54 :	61.0;	55 :	51.0;	56 :	28.0;
	57 :	19.0;	58 :	121.0;	59 :	133.0;	60 :	122.0;	61 :	112.0;
	62 :	144.0;	63 :	139.0;	64 :	140.0;	65 :	124.0;	66 :	130.0;
	67 :	97.0;	68 :	60.0;	69 :	106.0;	70 :	25.0;	71 :	119.0;
	72 :	75.0;

Origin  15
	37 :	69.0;	38 :	63.0;	39 :	63.0;	40 :	87.0;	41 :	77.0;
	42 :	129.0;	43 :	5.0;	44 :	104.0;	45 :	66.0;	46 :	40.0;
	47 :	130.0;	48 :	150.0;	49 :	136.0;	50 :	13.0;	51 :	76.0;
	52 :	130.0;	53 :	54.0;	54 :	29.0;	55 :	37.0;	56 :	130.0;
	57 :	142.0;	58 :	138.0;	59 :	134.0;	60 :	28.0;	61 :	152.0;
	62 :	110.0;	63 :	150.0;	64 :	133.0;	65 :	109.0;	66 :	0.0;
	67 :	27.0;	68 :	125.0;	69 :	143.0;	70 :	46.0;	71 :	15.0;
	72 :	105.0;

Origin  16
	37 :	126.0;	38 :	47.0;	39 :	118.0;	40 :	10.0;	41 :	50.0;
	42 :	138.0;	43 :	40.0;	44 :	17.0;	45 :	93.0;	46 :	148.0;
	47 :	143.0;	48 :	13.0;	49 :	109.0;	50 :	61.0;	51 :	78.0;
	52 :	36.0;	53 :	5.0;	54 :	110.0;	55 :	31.0;	56 :	58.0;
	57 :	27.0;	58 :	58.0;	59 :	8.0;	60 :	6.0;	61 :	24.0;
	62 :	112.0;	63 :	73.0;	64 :	77.0;	65 :	142.0;	66 :	78.0;
	67 :	144.0;	68 :	139.0;	69 :	71.0;	70 :	2.0;	71 :	19.0;
	72 :	78.0;

Origin  17
	37 :	57.0;	38 :	4.0;	39 :	30.0;	40 :	107.0;	41 :	146.0;
	42 :	30.0;	43 :	130.0;	44 :	27.0;	45 :	89.0;	46 :	82.0;
	47 :	60.0;	48 :	50.0;	49 :	23.0;	50 :	152.0;	51 :	147.0;
	52 :	60.0;	53 :	148.0;	54 :	36.0;	55 :	2.0;	56 :	121.0;
	57 :	14.0;	58 :	83.0;	59 :	92.0;	60 :	52.0;	61 :	58.0;
	62 :	77.0;	63 :	64.0;	64 :	56.0;	65 :	5.0;	66 :	85.0;
	67 :	89.0;	68 :	44.0;	69 :	37.0;	70 :	18.0;	71 :	33.0;
	72 :	135.0;

Origin  18
	37 :	12.0;	38 :	143.0;	39 :	132.0;	40 :	27.0;	41 :	49.0;
	42 :	85.0;	43 :	108.0;	44 :	146.0;	45 :	101.0;	46 :	144.0;
	47 :	118.0;	48 :	123.0;	49 :	6.0;	50 :	20.0;	51 :	76.0;
	52 :	140.0;	53 :	39.0;	54 :	85.0;	55 :	125.0;	56 :	96.0;
	57 :	36.0;	58 :	121.0;	59 :	127.0;	60 :	102.0;	61 :	78.0;
	62 :	9.0;	63 :	106.0;	64 :	115.0;	65 :	74.0;	66 :	63.0;
	67 :	108.0;	68 :	130.0;	69 :	77.0;	70 :	64.0;	71 :	126.0;
	72 :	84.0;

Origin  19
	37 :	81.0;	38 :	153.0;	39 :	76.0;	40 :	21.0;	41 :	42.0;
	42 :	46.0;	43 :	128.0;	44 :	45.0;	45 :	110.0;	46 :	123.0;
	47 :	139.0;	48 :	31.0;	49 :	63.0;	50 :	36.0;	51 :	133.0;
	52 :	118.0;	53 :	47.0;	54 :	40.0;	55 :	52.0;	56 :	59.0;
	57 :	35.0;	58 :	118.0;	59 :	11.0;	60 :	119.0;	61 :	139.0;
	62 :	131.0;	63 :	152.0;	64 :	71.0;	65 :	126.0;	66 :	79.0;
	67 :	26.0;	68 :	11.0;	69 :	147.0;	70 :	58.0;	71 :	148.0;
	72 :	90.0;

Origin  20
	37 :	103.0;	38 :	15.0;	39 :	16.0;	40 :	16.0;	41 :	36.0;
	42 :	30.0;	43 :	131.0;	44 :	8.0;	45 :	132.0;	46 :	12.0;
	47 :	104.0;	48 :	136.0;	49 :	110.0;	50 :	51.0;	51 :	130.0;
	52 :	37.0;	53 :	129.0;	54 :	107.0;	55 :	85.0;	56 :	140.0;
	57 :	105.0;	58 :	66.0;	59 :	56.0;	60 :	123.0;	61 :	53.0;
	62 :	11.0;	63 :	34.0;	64 :	9.0;	65 :	37.0;	66 :	72.0;
	67 :	110.0;	68 :	58.0;	69 :	16.0;	70 :	93.0;	71 :	72.0;
	72 :	84.0;

Origin  21
	37 :	69.0;	38 :	33.0;	39 :	123.0;	40 :	76.0;	41 :	57.0;
	42 :	67.0;	43 :	123.0;	44 :	73.0;	45 :	120.0;	46 :	116.0;
	47 :	36.0;	48 :	23.0;	49 :	26.0;	50 :	92.0;	51 :	12.0;
	52 :	61.0;	53 :	17.0;	54 :	86.0;	55 :	74.0;	56 :	19.0;
	57 :	49.0;	58 :	37.0;	59 :	6.0;	60 :	91.0;	61 :	55.0;
	62 :	69.0;	63 :	86.0;	64 :	6.0;	65 :	99.0;	66 :	43.0;
	67 :	3.0;	68 :	101.0;	69 :	7.0;	70 :	33.0;	71 :	23.0;
	72 :	36.0;

Origin  22
	37 :	115.0;	38 :	30.0;	39 :	68.0;	40 :	32.0;	41 :	68.0;
	42 :	6.0;	43 :	48.0;	44 :	134.0;	45 :	38.0;	46 :	66.0;
	47 :	30.0;	48 :	149.0;	49 :	61.0;	50 :	108.0;	51 :	80.0;
	52 :	136.0;	53 :	81.0;	54 :	63.0;	55 :	31.0;	56 :	61.0;
	57 :	130.0;	58 :	59.0;	59 :	25.0;	60 :	67.0;	61 :	44.0;
	62 :	64.0;	63 :	151.0;	64 :	98.0;	65 :	9.0;	66 :	131.0;
	67 :	137.0;	68 :	53.0;	69 :	118.0;	70 :	44.0;	71 :	68.0;
	72 :	146.0;

Origin  23
	37 :	131.0;	38 :	6.0;	39 :	135.0;	40 :	67.0;	41 :	1.0;
	42 :	113.0;	43 :	11.0;	44 :	12.0;	45 :	64.0;	46 :	40.0;
	47 :	146.0;	48 :	42.0;	49 :	39.0;	50 :	135.0;	51 :	143.0;
	52 :	66.0;	53 :	126.0;	54 :	73.0;	55 :	74.0;	56 :	90.0;
	57 :	122.0;	58 :	146.0;	59 :	104.0;	60 :	19.0;	61 :	152.0;
	62 :	96.0;	63 :	89.0;	64 :	134.0;	65 :	106.0;	66 :	99.0;
	67 :	55.0;	68 :	17.0;	69 :	57.0;	70 :	39.0;	71 :	68.0;
	72 :	152.0;

Origin  24
	37 :	10.0;	38 :	86.0;	39 :	1.0;	40 :	149.0;	41 :	47.0;
	42 :	60.0;	43 :	49.0;	44 :	42.0;	45 :	121.0;	46 :	77.0;
	47 :	112.0;	48 :	2.0;	49 :	90.0;	50 :	102.0;	51 :	65.0;
	52 :	77.0;	53 :	70.0;	54 :	84.0;	55 :	144.0;	56 :	88.0;
	57 :	20.0;	58 :	92.0;	59 :	48.0;	60 :	15.0;	61 :	58.0;
	62 :	133.0;	63 :	88.0;	64 :	43.0;	65 :	106.0;	66 :	14.0;
	67 :	32.0;	68 :	30.0;	69 :	126.0;	70 :	103.0;	71 :	8.0;
	72 :	118.0;

Origin  25
	37 :	24.0;	38 :	18.0;	39 :	152.0;	40 :	33.0;	41 :	14.0;
	42 :	143.0;	43 :	73.0;	44 :	134.0;	45 :	133.0;	46 :	71.0;
	47 :	145.0;	48 :	40.0;	49 :	97.0;	50 :	116.0;	51 :	13.0;
	52 :	124.0;	53 :	22.0;	54 :	0.0;	55 :	144.0;	56 :	122.0;
	57 :	97.0;	58 :	133.0;	59 :	71.0;	60 :	32.0;	61 :	41.0;
	62 :	13.0;	63 :	83.0;	64 :	127.0;	65 :	32.0;	66 :	143.0;
	67 :	107.0;	68 :	36.0;	69 :	64.0;	70 :	50.0;	71 :	100.0;
	72 :	26.0;

Origin  26
	37 :	52.0;	38 :	17.0;	39 :	37.0;	40 :	140.0;	41 :	128.0;
	42 :	21.0;	43 :	9.0;	44 :	103.0;	45 :	84.0;	46 :	76.0;
	47 :	16.0;	48 :	150.0;	49 :	48.0;	50 :	78.0;	51 :	125.0;
	52 :	116.0;	53 :	88.0;	54 :	10.0;	55 :	66.0;	56 :	84.0;
	57 :	76.0;	58 :	63.0;	59 :	62.0;	60 :	53.0;	61 :	111.0;
	62 :	80.0;	63 :	100.0;	64 :	106.0;	65 :	12.0;	66 :	84.0;
	67 :	53.0;	68 :	58.0;	69 :	84.0;	70 :	51.0;	71 :	6.0;
	72 :	3.0;

Origin  27
	37 :	53.0;	38 :	71.0;	39 :	40.0;	40 :	123.0;	41 :	116.0;
	42 :	150.0;	43 :	145.0;	44 :	112.0;	45 :	53.0;	46 :	78.0;
	47 :	49.0;	48 :	77.0;	49 :	76.0;	50 :	128.0;	51 :	46.0;
	52 :	26.0;	53 :	97.0;	54 :	58.0;	55 :	115.0;	56 :	48.0;
	57 :	29.0;	58 :	96.0;	59 :	80.0;	60 :	21.0;	61 :	143.0;
	62 :	153.0;	63 :	61.0;	64 :	23.0;	65 :	107.0;	66 :	54.0;
	67 :	34.0;	68 :	152.0;	69 :	99.0;	70 :	34.0;	71 :	114.0;
	72 :	66.0;

Origin  28
	37 :	66.0;	38 :	105.0;	39 :	93.0;	40 :	78.0;	41 :	80.0;
	42 :	51.0;	43 :	150.0;	44 :	65.0;	45 :	18.0;	46 :	109.0;
	47 :	139.0;	48 :	110.0;	49 :	29.0;	50 :	126.0;	51 :	82.0;
	52 :	74.0;	53 :	93.0;	54 :	139.0;	55 :	11.0;	56 :	69.0;
	57 :	54.0;	58 :	44.0;	59 :	58.0;	60 :	44.0;	61 :	60.0;
	62 :	51.0;	63 :	86.0;	64 :	62.0;	65 :	41.0;	66 :	14.0;
	67 :	100.0;	68 :	12.0;	69 :	44.0;	70 :	122.0;	71 :	68.0;
	72 :	47.0;

Origin  29
	37 :	3.0;	38 :	150.0;	39 :	23.0;	40 :	122.0;	41 :	73.0;
	42 :	125.0;	43 :	43.0;	44 :	57.0;	45 :	76.0;	46 :	129.0;
	47 :	35.0;	48 :	125.0;	49 :	82.0;	50 :	10.0;	51 :	132.0;
	52 :	152.0;	53 :	141.0;	54 :	86.0;	55 :	49.0;	56 :	138.0;
	57 :	138.0;	58 :	125.0;	59 :	119.0;	60 :	97.0;	61 :	94.0;
	62 :	60.0;	63 :	82.0;	64 :	86.0;	65 :	50.0;	66 :	69.0;
	67 :	72.0;	68 :	75.0;	69 :	99.0;	70 :	123.0;	71 :	152.0;
	72 :	124.0;

Origin  30
	37 :	74.0;	38 :	57.0;	39 :	62.0;	40 :	137.0;	41 :	37.0;
	42 :	66.0;	43 :	84.0;	44 :	135.0;	45 :	105.0;	46 :	76.0;
	47 :	102.0;	48 :	71.0;	49 :	80.0;	50 :	93.0;	51 :	28.0;
	52 :	97.0;	53 :	26.0;	54 :	66.0;	55 :	102.0;	56 :	96.0;
	57 :	74.0;	58 :	74.0;	59 :	42.0;	60 :	134.0;	61 :	90.0;
	62 :	66.0;	63 :	57.0;	64 :	99.0;	65 :	148.0;	66 :	14.0;
	67 :	51.0;	68 :	93.0;	69 :	9.0;	70 :	14.0;	71 :	139.0;
	72 :	136.0;

Origin  31
	37 :	26.0;	38 :	17.0;	39 :	11.0;	40 :	13.0;	41 :	61.0;
	42 :	136.0;	43 :	152.0;	44 :	2.0;	45 :	97.0;	46 :	18.0;
	47 :	133.0;	48 :	120.0;	49 :	118.0;	50 :	150.0;	51 :	46.0;
	52 :	93.0;	53 :	71.0;	54 :	87.0;	55 :	59.0;	56 :	121.0;
	57 :	40.0;	58 :	135.0;	59 :	126.0;	60 :	88.0;	61 :	102.0;
	62 :	95.0;	63 :	2.0;	64 :	126.0;	65 :	21.0;	66 :	19.0;
	67 :	102.0;	68 :	84.0;	69 :	61.0;	70 :	47.0;	71 :	33.0;
	72 :	58.0;

Origin  32
	37 :	20.0;	38 :	110.0;	39 :	78.0;	40 :	2.0;	41 :	122.0;
	42 :	6.0;	43 :	8.0;	44 :	98.0;	45 :	78.0;	46 :	62.0;
	47 :	135.0;	48 :	121.0;	49 :	41.0;	50 :	127.0;	51 :	131.0;
	52 :	142.0;	53 :	138.0;	54 :	11.0;	55 :	54.0;	56 :	50.0;
	57 :	22.0;	58 :	59.0;	59 :	53.0;	60 :	106.0;	61 :	101.0;
	62 :	33.0;	63 :	33.0;	64 :	118.0;	65 :	103.0;	66 :	68.0;
	67 :	25.0;	68 :	151.0;	69 :	126.0;	70 :	52.0;	71 :	98.0;
	72 :	34.0;

Origin  33
	37 :	19.0;	38 :	31.0;	39 :	132.0;	40 :	79.0;	41 :	46.0;
	42 :	12.0;	43 :	28.0;	44 :	51.0;	45 :	95.0;	46 :	127.0;
	47 :	151.0;	48 :	43.0;	49 :	105.0;	50 :	52.0;	51 :	150.0;
	52 :	83.0;	53 :	120.0;	54 :	148.0;	55 :	106.0;	56 :	88.0;
	57 :	101.0;	58 :	112.0;	59 :	133.0;	60 :	7.0;	61 :	120.0;
	62 :	97.0;	63 :	36.0;	64 :	147.0;	65 :	77.0;	66 :	13.0;
	67 :	106.0;	68 :	149.0;	69 :	152.0;	70 :	17.0;	71 :	133.0;
	72 :	137.0;

Origin  34
	37 :	109.0;	38 :	132.0;	39 :	147.0;	40 :	62.0;	41 :	82.0;
	42 :	3.0;	43 :	82.0;	44 :	41.0;	45 :	50.0;	46 :	81.0;
	47 :	138.0;	48 :	146.0;	49 :	66.0;	50 :	20.0;	51 :	100.0;
	52 :	60.0;	53 :	21.0;	54 :	31.0;	55 :	106.0;	56 :	115.0;
	57 :	36.0;	58 :	119.0;	59 :	4.0;	60 :	82.0;	61 :	133.0;
	62 :	24.0;	63 :	40.0;	64 :	82.0;	65 :	145.0;	66 :	114.0;
	67 :	73.0;	68 :	76.0;	69 :	24.0;	70 :	7.0;	71 :	74.0;
	72 :	41.0;

Origin  35
	37 :	90.0;	38 :	4.0;	39 :	73.0;	40 :	44.0;	41 :	12.0;
	42 :	90.0;	43 :	59.0;	44 :	26.0;	45 :	38.0;	46 :	98.0;
	47 :	92.0;	48 :	68.0;	49 :	128.0;	50 :	121.0;	51 :	45.0;
	52 :	15.0;	53 :	34.0;	54 :	142.0;	55 :	124.0;	56 :	11.0;
	57 :	43.0;	58 :	115.0;	59 :	30.0;	60 :	68.0;	61 :	8.0;
	62 :	129.0;	63 :	23.0;	64 :	41.0;	65 :	77.0;	66 :	52.0;
	67 :	118.0;	68 :	69.0;	69 :	141.0;	70 :	116.0;	71 :	105.0;
	72 :	9.0;

Origin  36
	37 :	68.0;	38 :	78.0;	39 :	25.0;	40 :	152.0;	41 :	99.0;
	42 :	107.0;	43 :	48.0;	44 :	113.0;	45 :	15.0;	46 :	104.0;
	47 :	11.0;	48 :	82.0;	49 :	84.0;	50 :	31.0;	51 :	152.0;
	52 :	10.0;	53 :	1.0;	54 :	6.0;	55 :	79.0;	56 :	39.0;
	57 :	115.0;	58 :	61.0;	59 :	65.0;	60 :	142.0;	61 :	150.0;
	62 :	65.0;	63 :	99.0;	64 :	128.0;	65 :	84.0;	66 :	132.0;
	67 :	113.0;	68 :	61.0;	69 :	47.0;	70 :	55.0;	71 :	27.0;
	72 :	79.0;