<NUMBER OF ZONES> 50
<NUMBER OF NODES> 1050
<FIRST THRU NODE> 1
<NUMBER OF LINKS> 4095
<ORIGINAL HEADER> 
<END OF METADATA>


~	init_node	term_node	free_flow_time	original_link	time	original_TS_link	user_state	link_type	price_index	;
	51	77	9.0	0	0	0	0	1	0	;
	51	81	9.0	1	0	1	0	1	0	;
	52	78	9.0	2	0	2	0	1	0	;
	52	82	9.0	3	0	3	0	1	0	;
	53	79	9.0	4	0	4	0	1	0	;
	53	83	9.0	5	0	5	0	1	0	;
	54	80	9.0	6	0	6	0	1	0	;
	54	84	9.0	7	0	7	0	1	0	;
	55	85	9.0	8	0	8	0	1	0	;
	56	82	9.0	9	0	9	0	1	0	;
	56	86	9.0	10	0	10	0	1	0	;
	57	83	9.0	11	0	11	0	1	0	;
	57	87	9.0	12	0	12	0	1	0	;
	58	84	9.0	13	0	13	0	1	0	;
	58	88	9.0	14	0	14	0	1	0	;
	59	85	9.0	15	0	15	0	1	0	;
	59	89	9.0	16	0	16	0	1	0	;
	60	90	9.0	17	0	17	0	1	0	;
	61	87	9.0	18	0	18	0	1	0	;
	61	91	9.0	19	0	19	0	1	0	;
	62	88	9.0	20	0	20	0	1	0	;
	62	92	9.0	21	0	21	0	1	0	;
	63	89	9.0	22	0	22	0	1	0	;
	63	93	9.0	23	0	23	0	1	0	;
	64	90	9.0	24	0	24	0	1	0	;
	64	94	9.0	25	0	25	0	1	0	;
	65	95	9.0	26	0	26	0	1	0	;
	66	92	9.0	27	0	27	0	1	0	;
	66	96	9.0	28	0	28	0	1	0	;
	67	93	9.0	29	0	29	0	1	0	;
	67	97	9.0	30	0	30	0	1	0	;
	68	94	9.0	31	0	31	0	1	0	;
	68	98	9.0	32	0	32	0	1	0	;
	69	95	9.0	33	0	33	0	1	0	;
	69	99	9.0	34	0	34	0	1	0	;
	70	100	9.0	35	0	35	0	1	0	;
	71	97	9.0	36	0	36	0	1	0	;
	72	98	9.0	37	0	37	0	1	0	;
	73	99	9.0	38	0	38	0	1	0	;
	74	100	9.0	39	0	39	0	1	0	;
	76	102	9.0	0	1	40	0	1	0	;
	76	106	9.0	1	1	41	0	1	0	;
	77	103	9.0	2	1	42	0	1	0	;
	77	107	9.0	3	1	43	0	1	0	;
	78	104	9.0	4	1	44	0	1	0	;
	78	108	9.0	5	1	45	0	1	0	;
	79	105	9.0	6	1	46	0	1	0	;
	79	109	9.0	7	1	47	0	1	0	;
	80	110	9.0	8	1	48	0	1	0	;
	81	107	9.0	9	1	49	0	1	0	;
	81	111	9.0	10	1	50	0	1	0	;
	82	108	9.0	11	1	51	0	1	0	;
	82	112	9.0	12	1	52	0	1	0	;
	83	109	9.0	13	1	53	0	1	0	;
	83	113	9.0	14	1	54	0	1	0	;
	84	110	9.0	15	1	55	0	1	0	;
	84	114	9.0	16	1	56	0	1	0	;
	85	115	9.0	17	1	57	0	1	0	;
	86	112	9.0	18	1	58	0	1	0	;
	86	116	9.0	19	1	59	0	1	0	;
	87	113	9.0	20	1	60	0	1	0	;
	87	117	9.0	21	1	61	0	1	0	;
	88	114	9.0	22	1	62	0	1	0	;
	88	118	9.0	23	1	63	0	1	0	;
	89	115	9.0	24	1	64	0	1	0	;
	89	119	9.0	25	1	65	0	1	0	;
	90	120	9.0	26	1	66	0	1	0	;
	91	117	9.0	27	1	67	0	1	0	;
	91	121	9.0	28	1	68	0	1	0	;
	92	118	9.0	29	1	69	0	1	0	;
	92	122	9.0	30	1	70	0	1	0	;
	93	119	9.0	31	1	71	0	1	0	;
	93	123	9.0	32	1	72	0	1	0	;
	94	120	9.0	33	1	73	0	1	0	;
	94	124	9.0	34	1	74	0	1	0	;
	95	125	9.0	35	1	75	0	1	0	;
	96	122	9.0	36	1	76	0	1	0	;
	97	123	9.0	37	1	77	0	1	0	;
	98	124	9.0	38	1	78	0	1	0	;
	99	125	9.0	39	1	79	0	1	0	;
	101	127	9.0	0	2	80	0	1	0	;
	101	131	9.0	1	2	81	0	1	0	;
	102	128	9.0	2	2	82	0	1	0	;
	102	132	9.0	3	2	83	0	1	0	;
	103	129	9.0	4	2	84	0	1	0	;
	103	133	9.0	5	2	85	0	1	0	;
	104	130	9.0	6	2	86	0	1	0	;
	104	134	9.0	7	2	87	0	1	0	;
	105	135	9.0	8	2	88	0	1	0	;
	106	132	9.0	9	2	89	0	1	0	;
	106	136	9.0	10	2	90	0	1	0	;
	107	133	9.0	11	2	91	0	1	0	;
	107	137	9.0	12	2	92	0	1	0	;
	108	134	9.0	13	2	93	0	1	0	;
	108	138	9.0	14	2	94	0	1	0	;
	109	135	9.0	15	2	95	0	1	0	;
	109	139	9.0	16	2	96	0	1	0	;
	110	140	9.0	17	2	97	0	1	0	;
	111	137	9.0	18	2	98	0	1	0	;
	111	141	9.0	19	2	99	0	1	0	;
	112	138	9.0	20	2	100	0	1	0	;
	112	142	9.0	21	2	101	0	1	0	;
	113	139	9.0	22	2	102	0	1	0	;
	113	143	9.0	23	2	103	0	1	0	;
	114	140	9.0	24	2	104	0	1	0	;
	114	144	9.0	25	2	105	0	1	0	;
	115	145	9.0	26	2	106	0	1	0	;
	116	142	9.0	27	2	107	0	1	0	;
	116	146	9.0	28	2	108	0	1	0	;
	117	143	9.0	29	2	109	0	1	0	;
	117	147	9.0	30	2	110	0	1	0	;
	118	144	9.0	31	2	111	0	1	0	;
	118	148	9.0	32	2	112	0	1	0	;
	119	145	9.0	33	2	113	0	1	0	;
	119	149	9.0	34	2	114	0	1	0	;
	120	150	9.0	35	2	115	0	1	0	;
	121	147	9.0	36	2	116	0	1	0	;
	122	148	9.0	37	2	117	0	1	0	;
	123	149	9.0	38	2	118	0	1	0	;
	124	150	9.0	39	2	119	0	1	0	;
	126	152	9.0	0	3	120	0	1	0	;
	126	156	9.0	1	3	121	0	1	0	;
	127	153	9.0	2	3	122	0	1	0	;
	127	157	9.0	3	3	123	0	1	0	;
	128	154	9.0	4	3	124	0	1	0	;
	128	158	9.0	5	3	125	0	1	0	;
	129	155	9.0	6	3	126	0	1	0	;
	129	159	9.0	7	3	127	0	1	0	;
	130	160	9.0	8	3	128	0	1	0	;
	131	157	9.0	9	3	129	0	1	0	;
	131	161	9.0	10	3	130	0	1	0	;
	132	158	9.0	11	3	131	0	1	0	;
	132	162	9.0	12	3	132	0	1	0	;
	133	159	9.0	13	3	133	0	1	0	;
	133	163	9.0	14	3	134	0	1	0	;
	134	160	9.0	15	3	135	0	1	0	;
	134	164	9.0	16	3	136	0	1	0	;
	135	165	9.0	17	3	137	0	1	0	;
	136	162	9.0	18	3	138	0	1	0	;
	136	166	9.0	19	3	139	0	1	0	;
	137	163	9.0	20	3	140	0	1	0	;
	137	167	9.0	21	3	141	0	1	0	;
	138	164	9.0	22	3	142	0	1	0	;
	138	168	9.0	23	3	143	0	1	0	;
	139	165	9.0	24	3	144	0	1	0	;
	139	169	9.0	25	3	145	0	1	0	;
	140	170	9.0	26	3	146	0	1	0	;
	141	167	9.0	27	3	147	0	1	0	;
	141	171	9.0	28	3	148	0	1	0	;
	142	168	9.0	29	3	149	0	1	0	;
	142	172	9.0	30	3	150	0	1	0	;
	143	169	9.0	31	3	151	0	1	0	;
	143	173	9.0	32	3	152	0	1	0	;
	144	170	9.0	33	3	153	0	1	0	;
	144	174	9.0	34	3	154	0	1	0	;
	145	175	9.0	35	3	155	0	1	0	;
	146	172	9.0	36	3	156	0	1	0	;
	147	173	9.0	37	3	157	0	1	0	;
	148	174	9.0	38	3	158	0	1	0	;
	149	175	9.0	39	3	159	0	1	0	;
	151	177	9.0	0	4	160	0	1	0	;
	151	181	9.0	1	4	161	0	1	0	;
	152	178	9.0	2	4	162	0	1	0	;
	152	182	9.0	3	4	163	0	1	0	;
	153	179	9.0	4	4	164	0	1	0	;
	153	183	9.0	5	4	165	0	1	0	;
	154	180	9.0	6	4	166	0	1	0	;
	154	184	9.0	7	4	167	0	1	0	;
	155	185	9.0	8	4	168	0	1	0	;
	156	182	9.0	9	4	169	0	1	0	;
	156	186	9.0	10	4	170	0	1	0	;
	157	183	9.0	11	4	171	0	1	0	;
	157	187	9.0	12	4	172	0	1	0	;
	158	184	9.0	13	4	173	0	1	0	;
	158	188	9.0	14	4	174	0	1	0	;
	159	185	9.0	15	4	175	0	1	0	;
	159	189	9.0	16	4	176	0	1	0	;
	160	190	9.0	17	4	177	0	1	0	;
	161	187	9.0	18	4	178	0	1	0	;
	161	191	9.0	19	4	179	0	1	0	;
	162	188	9.0	20	4	180	0	1	0	;
	162	192	9.0	21	4	181	0	1	0	;
	163	189	9.0	22	4	182	0	1	0	;
	163	193	9.0	23	4	183	0	1	0	;
	164	190	9.0	24	4	184	0	1	0	;
	164	194	9.0	25	4	185	0	1	0	;
	165	195	9.0	26	4	186	0	1	0	;
	166	192	9.0	27	4	187	0	1	0	;
	166	196	9.0	28	4	188	0	1	0	;
	167	193	9.0	29	4	189	0	1	0	;
	167	197	9.0	30	4	190	0	1	0	;
	168	194	9.0	31	4	191	0	1	0	;
	168	198	9.0	32	4	192	0	1	0	;
	169	195	9.0	33	4	193	0	1	0	;
	169	199	9.0	34	4	194	0	1	0	;
	170	200	9.0	35	4	195	0	1	0	;
	171	197	9.0	36	4	196	0	1	0	;
	172	198	9.0	37	4	197	0	1	0	;
	173	199	9.0	38	4	198	0	1	0	;
	174	200	9.0	39	4	199	0	1	0	;
	176	202	9.0	0	5	200	0	1	0	;
	176	206	9.0	1	5	201	0	1	0	;
	177	203	9.0	2	5	202	0	1	0	;
	177	207	9.0	3	5	203	0	1	0	;
	178	204	9.0	4	5	204	0	1	0	;
	178	208	9.0	5	5	205	0	1	0	;
	179	205	9.0	6	5	206	0	1	0	;
	179	209	9.0	7	5	207	0	1	0	;
	180	210	9.0	8	5	208	0	1	0	;
	181	207	9.0	9	5	209	0	1	0	;
	181	211	9.0	10	5	210	0	1	0	;
	182	208	9.0	11	5	211	0	1	0	;
	182	212	9.0	12	5	212	0	1	0	;
	183	209	9.0	13	5	213	0	1	0	;
	183	213	9.0	14	5	214	0	1	0	;
	184	210	9.0	15	5	215	0	1	0	;
	184	214	9.0	16	5	216	0	1	0	;
	185	215	9.0	17	5	217	0	1	0	;
	186	212	9.0	18	5	218	0	1	0	;
	186	216	9.0	19	5	219	0	1	0	;
	187	213	9.0	20	5	220	0	1	0	;
	187	217	9.0	21	5	221	0	1	0	;
	188	214	9.0	22	5	222	0	1	0	;
	188	218	9.0	23	5	223	0	1	0	;
	189	215	9.0	24	5	224	0	1	0	;
	189	219	9.0	25	5	225	0	1	0	;
	190	220	9.0	26	5	226	0	1	0	;
	191	217	9.0	27	5	227	0	1	0	;
	191	221	9.0	28	5	228	0	1	0	;
	192	218	9.0	29	5	229	0	1	0	;
	192	222	9.0	30	5	230	0	1	0	;
	193	219	9.0	31	5	231	0	1	0	;
	193	223	9.0	32	5	232	0	1	0	;
	194	220	9.0	33	5	233	0	1	0	;
	194	224	9.0	34	5	234	0	1	0	;
	195	225	9.0	35	5	235	0	1	0	;
	196	222	9.0	36	5	236	0	1	0	;
	197	223	9.0	37	5	237	0	1	0	;
	198	224	9.0	38	5	238	0	1	0	;
	199	225	9.0	39	5	239	0	1	0	;
	201	227	9.0	0	6	240	0	1	0	;
	201	231	9.0	1	6	241	0	1	0	;
	202	228	9.0	2	6	242	0	1	0	;
	202	232	9.0	3	6	243	0	1	0	;
	203	229	9.0	4	6	244	0	1	0	;
	203	233	9.0	5	6	245	0	1	0	;
	204	230	9.0	6	6	246	0	1	0	;
	204	234	9.0	7	6	247	0	1	0	;
	205	235	9.0	8	6	248	0	1	0	;
	206	232	9.0	9	6	249	0	1	0	;
	206	236	9.0	10	6	250	0	1	0	;
	207	233	9.0	11	6	251	0	1	0	;
	207	237	9.0	12	6	252	0	1	0	;
	208	234	9.0	13	6	253	0	1	0	;
	208	238	9.0	14	6	254	0	1	0	;
	209	235	9.0	15	6	255	0	1	0	;
	209	239	9.0	16	6	256	0	1	0	;
	210	240	9.0	17	6	257	0	1	0	;
	211	237	9.0	18	6	258	0	1	0	;
	211	241	9.0	19	6	259	0	1	0	;
	212	238	9.0	20	6	260	0	1	0	;
	212	242	9.0	21	6	261	0	1	0	;
	213	239	9.0	22	6	262	0	1	0	;
	213	243	9.0	23	6	263	0	1	0	;
	214	240	9.0	24	6	264	0	1	0	;
	214	244	9.0	25	6	265	0	1	0	;
	215	245	9.0	26	6	266	0	1	0	;
	216	242	9.0	27	6	267	0	1	0	;
	216	246	9.0	28	6	268	0	1	0	;
	217	243	9.0	29	6	269	0	1	0	;
	217	247	9.0	30	6	270	0	1	0	;
	218	244	9.0	31	6	271	0	1	0	;
	218	248	9.0	32	6	272	0	1	0	;
	219	245	9.0	33	6	273	0	1	0	;
	219	249	9.0	34	6	274	0	1	0	;
	220	250	9.0	35	6	275	0	1	0	;
	221	247	9.0	36	6	276	0	1	0	;
	222	248	9.0	37	6	277	0	1	0	;
	223	249	9.0	38	6	278	0	1	0	;
	224	250	9.0	39	6	279	0	1	0	;
	226	252	9.0	0	7	280	0	1	0	;
	226	256	9.0	1	7	281	0	1	0	;
	227	253	9.0	2	7	282	0	1	0	;
	227	257	9.0	3	7	283	0	1	0	;
	228	254	9.0	4	7	284	0	1	0	;
	228	258	9.0	5	7	285	0	1	0	;
	229	255	9.0	6	7	286	0	1	0	;
	229	259	9.0	7	7	287	0	1	0	;
	230	260	9.0	8	7	288	0	1	0	;
	231	257	9.0	9	7	289	0	1	0	;
	231	261	9.0	10	7	290	0	1	0	;
	232	258	9.0	11	7	291	0	1	0	;
	232	262	9.0	12	7	292	0	1	0	;
	233	259	9.0	13	7	293	0	1	0	;
	233	263	9.0	14	7	294	0	1	0	;
	234	260	9.0	15	7	295	0	1	0	;
	234	264	9.0	16	7	296	0	1	0	;
	235	265	9.0	17	7	297	0	1	0	;
	236	262	9.0	18	7	298	0	1	0	;
	236	266	9.0	19	7	299	0	1	0	;
	237	263	9.0	20	7	300	0	1	0	;
	237	267	9.0	21	7	301	0	1	0	;
	238	264	9.0	22	7	302	0	1	0	;
	238	268	9.0	23	7	303	0	1	0	;
	239	265	9.0	24	7	304	0	1	0	;
	239	269	9.0	25	7	305	0	1	0	;
	240	270	9.0	26	7	306	0	1	0	;
	241	267	9.0	27	7	307	0	1	0	;
	241	271	9.0	28	7	308	0	1	0	;
	242	268	9.0	29	7	309	0	1	0	;
	242	272	9.0	30	7	310	0	1	0	;
	243	269	9.0	31	7	311	0	1	0	;
	243	273	9.0	32	7	312	0	1	0	;
	244	270	9.0	33	7	313	0	1	0	;
	244	274	9.0	34	7	314	0	1	0	;
	245	275	9.0	35	7	315	0	1	0	;
	246	272	9.0	36	7	316	0	1	0	;
	247	273	9.0	37	7	317	0	1	0	;
	248	274	9.0	38	7	318	0	1	0	;
	249	275	9.0	39	7	319	0	1	0	;
	251	277	9.0	0	8	320	0	1	0	;
	251	281	9.0	1	8	321	0	1	0	;
	252	278	9.0	2	8	322	0	1	0	;
	252	282	9.0	3	8	323	0	1	0	;
	253	279	9.0	4	8	324	0	1	0	;
	253	283	9.0	5	8	325	0	1	0	;
	254	280	9.0	6	8	326	0	1	0	;
	254	284	9.0	7	8	327	0	1	0	;
	255	285	9.0	8	8	328	0	1	0	;
	256	282	9.0	9	8	329	0	1	0	;
	256	286	9.0	10	8	330	0	1	0	;
	257	283	9.0	11	8	331	0	1	0	;
	257	287	9.0	12	8	332	0	1	0	;
	258	284	9.0	13	8	333	0	1	0	;
	258	288	9.0	14	8	334	0	1	0	;
	259	285	9.0	15	8	335	0	1	0	;
	259	289	9.0	16	8	336	0	1	0	;
	260	290	9.0	17	8	337	0	1	0	;
	261	287	9.0	18	8	338	0	1	0	;
	261	291	9.0	19	8	339	0	1	0	;
	262	288	9.0	20	8	340	0	1	0	;
	262	292	9.0	21	8	341	0	1	0	;
	263	289	9.0	22	8	342	0	1	0	;
	263	293	9.0	23	8	343	0	1	0	;
	264	290	9.0	24	8	344	0	1	0	;
	264	294	9.0	25	8	345	0	1	0	;
	265	295	9.0	26	8	346	0	1	0	;
	266	292	9.0	27	8	347	0	1	0	;
	266	296	9.0	28	8	348	0	1	0	;
	267	293	9.0	29	8	349	0	1	0	;
	267	297	9.0	30	8	350	0	1	0	;
	268	294	9.0	31	8	351	0	1	0	;
	268	298	9.0	32	8	352	0	1	0	;
	269	295	9.0	33	8	353	0	1	0	;
	269	299	9.0	34	8	354	0	1	0	;
	270	300	9.0	35	8	355	0	1	0	;
	271	297	9.0	36	8	356	0	1	0	;
	272	298	9.0	37	8	357	0	1	0	;
	273	299	9.0	38	8	358	0	1	0	;
	274	300	9.0	39	8	359	0	1	0	;
	276	302	9.0	0	9	360	0	1	0	;
	276	306	9.0	1	9	361	0	1	0	;
	277	303	9.0	2	9	362	0	1	0	;
	277	307	9.0	3	9	363	0	1	0	;
	278	304	9.0	4	9	364	0	1	0	;
	278	308	9.0	5	9	365	0	1	0	;
	279	305	9.0	6	9	366	0	1	0	;
	279	309	9.0	7	9	367	0	1	0	;
	280	310	9.0	8	9	368	0	1	0	;
	281	307	9.0	9	9	369	0	1	0	;
	281	311	9.0	10	9	370	0	1	0	;
	282	308	9.0	11	9	371	0	1	0	;
	282	312	9.0	12	9	372	0	1	0	;
	283	309	9.0	13	9	373	0	1	0	;
	283	313	9.0	14	9	374	0	1	0	;
	284	310	9.0	15	9	375	0	1	0	;
	284	314	9.0	16	9	376	0	1	0	;
	285	315	9.0	17	9	377	0	1	0	;
	286	312	9.0	18	9	378	0	1	0	;
	286	316	9.0	19	9	379	0	1	0	;
	287	313	9.0	20	9	380	0	1	0	;
	287	317	9.0	21	9	381	0	1	0	;
	288	314	9.0	22	9	382	0	1	0	;
	288	318	9.0	23	9	383	0	1	0	;
	289	315	9.0	24	9	384	0	1	0	;
	289	319	9.0	25	9	385	0	1	0	;
	290	320	9.0	26	9	386	0	1	0	;
	291	317	9.0	27	9	387	0	1	0	;
	291	321	9.0	28	9	388	0	1	0	;
	292	318	9.0	29	9	389	0	1	0	;
	292	322	9.0	30	9	390	0	1	0	;
	293	319	9.0	31	9	391	0	1	0	;
	293	323	9.0	32	9	392	0	1	0	;
	294	320	9.0	33	9	393	0	1	0	;
	294	324	9.0	34	9	394	0	1	0	;
	295	325	9.0	35	9	395	0	1	0	;
	296	322	9.0	36	9	396	0	1	0	;
	297	323	9.0	37	9	397	0	1	0	;
	298	324	9.0	38	9	398	0	1	0	;
	299	325	9.0	39	9	399	0	1	0	;
	301	327	9.0	0	10	400	0	1	0	;
	301	331	9.0	1	10	401	0	1	0	;
	302	328	9.0	2	10	402	0	1	0	;
	302	332	9.0	3	10	403	0	1	0	;
	303	329	9.0	4	10	404	0	1	0	;
	303	333	9.0	5	10	405	0	1	0	;
	304	330	9.0	6	10	406	0	1	0	;
	304	334	9.0	7	10	407	0	1	0	;
	305	335	9.0	8	10	408	0	1	0	;
	306	332	9.0	9	10	409	0	1	0	;
	306	336	9.0	10	10	410	0	1	0	;
	307	333	9.0	11	10	411	0	1	0	;
	307	337	9.0	12	10	412	0	1	0	;
	308	334	9.0	13	10	413	0	1	0	;
	308	338	9.0	14	10	414	0	1	0	;
	309	335	9.0	15	10	415	0	1	0	;
	309	339	9.0	16	10	416	0	1	0	;
	310	340	9.0	17	10	417	0	1	0	;
	311	337	9.0	18	10	418	0	1	0	;
	311	341	9.0	19	10	419	0	1	0	;
	312	338	9.0	20	10	420	0	1	0	;
	312	342	9.0	21	10	421	0	1	0	;
	313	339	9.0	22	10	422	0	1	0	;
	313	343	9.0	23	10	423	0	1	0	;
	314	340	9.0	24	10	424	0	1	0	;
	314	344	9.0	25	10	425	0	1	0	;
	315	345	9.0	26	10	426	0	1	0	;
	316	342	9.0	27	10	427	0	1	0	;
	316	346	9.0	28	10	428	0	1	0	;
	317	343	9.0	29	10	429	0	1	0	;
	317	347	9.0	30	10	430	0	1	0	;
	318	344	9.0	31	10	431	0	1	0	;
	318	348	9.0	32	10	432	0	1	0	;
	319	345	9.0	33	10	433	0	1	0	;
	319	349	9.0	34	10	434	0	1	0	;
	320	350	9.0	35	10	435	0	1	0	;
	321	347	9.0	36	10	436	0	1	0	;
	322	348	9.0	37	10	437	0	1	0	;
	323	349	9.0	38	10	438	0	1	0	;
	324	350	9.0	39	10	439	0	1	0	;
	326	352	9.0	0	11	440	0	1	0	;
	326	356	9.0	1	11	441	0	1	0	;
	327	353	9.0	2	11	442	0	1	0	;
	327	357	9.0	3	11	443	0	1	0	;
	328	354	9.0	4	11	444	0	1	0	;
	328	358	9.0	5	11	445	0	1	0	;
	329	355	9.0	6	11	446	0	1	0	;
	329	359	9.0	7	11	447	0	1	0	;
	330	360	9.0	8	11	448	0	1	0	;
	331	357	9.0	9	11	449	0	1	0	;
	331	361	9.0	10	11	450	0	1	0	;
	332	358	9.0	11	11	451	0	1	0	;
	332	362	9.0	12	11	452	0	1	0	;
	333	359	9.0	13	11	453	0	1	0	;
	333	363	9.0	14	11	454	0	1	0	;
	334	360	9.0	15	11	455	0	1	0	;
	334	364	9.0	16	11	456	0	1	0	;
	335	365	9.0	17	11	457	0	1	0	;
	336	362	9.0	18	11	458	0	1	0	;
	336	366	9.0	19	11	459	0	1	0	;
	337	363	9.0	20	11	460	0	1	0	;
	337	367	9.0	21	11	461	0	1	0	;
	338	364	9.0	22	11	462	0	1	0	;
	338	368	9.0	23	11	463	0	1	0	;
	339	365	9.0	24	11	464	0	1	0	;
	339	369	9.0	25	11	465	0	1	0	;
	340	370	9.0	26	11	466	0	1	0	;
	341	367	9.0	27	11	467	0	1	0	;
	341	371	9.0	28	11	468	0	1	0	;
	342	368	9.0	29	11	469	0	1	0	;
	342	372	9.0	30	11	470	0	1	0	;
	343	369	9.0	31	11	471	0	1	0	;
	343	373	9.0	32	11	472	0	1	0	;
	344	370	9.0	33	11	473	0	1	0	;
	344	374	9.0	34	11	474	0	1	0	;
	345	375	9.0	35	11	475	0	1	0	;
	346	372	9.0	36	11	476	0	1	0	;
	347	373	9.0	37	11	477	0	1	0	;
	348	374	9.0	38	11	478	0	1	0	;
	349	375	9.0	39	11	479	0	1	0	;
	351	377	9.0	0	12	480	0	1	0	;
	351	381	9.0	1	12	481	0	1	0	;
	352	378	9.0	2	12	482	0	1	0	;
	352	382	9.0	3	12	483	0	1	0	;
	353	379	9.0	4	12	484	0	1	0	;
	353	383	9.0	5	12	485	0	1	0	;
	354	380	9.0	6	12	486	0	1	0	;
	354	384	9.0	7	12	487	0	1	0	;
	355	385	9.0	8	12	488	0	1	0	;
	356	382	9.0	9	12	489	0	1	0	;
	356	386	9.0	10	12	490	0	1	0	;
	357	383	9.0	11	12	491	0	1	0	;
	357	387	9.0	12	12	492	0	1	0	;
	358	384	9.0	13	12	493	0	1	0	;
	358	388	9.0	14	12	494	0	1	0	;
	359	385	9.0	15	12	495	0	1	0	;
	359	389	9.0	16	12	496	0	1	0	;
	360	390	9.0	17	12	497	0	1	0	;
	361	387	9.0	18	12	498	0	1	0	;
	361	391	9.0	19	12	499	0	1	0	;
	362	388	9.0	20	12	500	0	1	0	;
	362	392	9.0	21	12	501	0	1	0	;
	363	389	9.0	22	12	502	0	1	0	;
	363	393	9.0	23	12	503	0	1	0	;
	364	390	9.0	24	12	504	0	1	0	;
	364	394	9.0	25	12	505	0	1	0	;
	365	395	9.0	26	12	506	0	1	0	;
	366	392	9.0	27	12	507	0	1	0	;
	366	396	9.0	28	12	508	0	1	0	;
	367	393	9.0	29	12	509	0	1	0	;
	367	397	9.0	30	12	510	0	1	0	;
	368	394	9.0	31	12	511	0	1	0	;
	368	398	9.0	32	12	512	0	1	0	;
	369	395	9.0	33	12	513	0	1	0	;
	369	399	9.0	34	12	514	0	1	0	;
	370	400	9.0	35	12	515	0	1	0	;
	371	397	9.0	36	12	516	0	1	0	;
	372	398	9.0	37	12	517	0	1	0	;
	373	399	9.0	38	12	518	0	1	0	;
	374	400	9.0	39	12	519	0	1	0	;
	376	402	9.0	0	13	520	0	1	0	;
	376	406	9.0	1	13	521	0	1	0	;
	377	403	9.0	2	13	522	0	1	0	;
	377	407	9.0	3	13	523	0	1	0	;
	378	404	9.0	4	13	524	0	1	0	;
	378	408	9.0	5	13	525	0	1	0	;
	379	405	9.0	6	13	526	0	1	0	;
	379	409	9.0	7	13	527	0	1	0	;
	380	410	9.0	8	13	528	0	1	0	;
	381	407	9.0	9	13	529	0	1	0	;
	381	411	9.0	10	13	530	0	1	0	;
	382	408	9.0	11	13	531	0	1	0	;
	382	412	9.0	12	13	532	0	1	0	;
	383	409	9.0	13	13	533	0	1	0	;
	383	413	9.0	14	13	534	0	1	0	;
	384	410	9.0	15	13	535	0	1	0	;
	384	414	9.0	16	13	536	0	1	0	;
	385	415	9.0	17	13	537	0	1	0	;
	386	412	9.0	18	13	538	0	1	0	;
	386	416	9.0	19	13	539	0	1	0	;
	387	413	9.0	20	13	540	0	1	0	;
	387	417	9.0	21	13	541	0	1	0	;
	388	414	9.0	22	13	542	0	1	0	;
	388	418	9.0	23	13	543	0	1	0	;
	389	415	9.0	24	13	544	0	1	0	;
	389	419	9.0	25	13	545	0	1	0	;
	390	420	9.0	26	13	546	0	1	0	;
	391	417	9.0	27	13	547	0	1	0	;
	391	421	9.0	28	13	548	0	1	0	;
	392	418	9.0	29	13	549	0	1	0	;
	392	422	9.0	30	13	550	0	1	0	;
	393	419	9.0	31	13	551	0	1	0	;
	393	423	9.0	32	13	552	0	1	0	;
	394	420	9.0	33	13	553	0	1	0	;
	394	424	9.0	34	13	554	0	1	0	;
	395	425	9.0	35	13	555	0	1	0	;
	396	422	9.0	36	13	556	0	1	0	;
	397	423	9.0	37	13	557	0	1	0	;
	398	424	9.0	38	13	558	0	1	0	;
	399	425	9.0	39	13	559	0	1	0	;
	401	427	9.0	0	14	560	0	1	0	;
	401	431	9.0	1	14	561	0	1	0	;
	402	428	9.0	2	14	562	0	1	0	;
	402	432	9.0	3	14	563	0	1	0	;
	403	429	9.0	4	14	564	0	1	0	;
	403	433	9.0	5	14	565	0	1	0	;
	404	430	9.0	6	14	566	0	1	0	;
	404	434	9.0	7	14	567	0	1	0	;
	405	435	9.0	8	14	568	0	1	0	;
	406	432	9.0	9	14	569	0	1	0	;
	406	436	9.0	10	14	570	0	1	0	;
	407	433	9.0	11	14	571	0	1	0	;
	407	437	9.0	12	14	572	0	1	0	;
	408	434	9.0	13	14	573	0	1	0	;
	408	438	9.0	14	14	574	0	1	0	;
	409	435	9.0	15	14	575	0	1	0	;
	409	439	9.0	16	14	576	0	1	0	;
	410	440	9.0	17	14	577	0	1	0	;
	411	437	9.0	18	14	578	0	1	0	;
	411	441	9.0	19	14	579	0	1	0	;
	412	438	9.0	20	14	580	0	1	0	;
	412	442	9.0	21	14	581	0	1	0	;
	413	439	9.0	22	14	582	0	1	0	;
	413	443	9.0	23	14	583	0	1	0	;
	414	440	9.0	24	14	584	0	1	0	;
	414	444	9.0	25	14	585	0	1	0	;
	415	445	9.0	26	14	586	0	1	0	;
	416	442	9.0	27	14	587	0	1	0	;
	416	446	9.0	28	14	588	0	1	0	;
	417	443	9.0	29	14	589	0	1	0	;
	417	447	9.0	30	14	590	0	1	0	;
	418	444	9.0	31	14	591	0	1	0	;
	418	448	9.0	32	14	592	0	1	0	;
	419	445	9.0	33	14	593	0	1	0	;
	419	449	9.0	34	14	594	0	1	0	;
	420	450	9.0	35	14	595	0	1	0	;
	421	447	9.0	36	14	596	0	1	0	;
	422	448	9.0	37	14	597	0	1	0	;
	423	449	9.0	38	14	598	0	1	0	;
	424	450	9.0	39	14	599	0	1	0	;
	426	452	9.0	0	15	600	0	1	0	;
	426	456	9.0	1	15	601	0	1	0	;
	427	453	9.0	2	15	602	0	1	0	;
	427	457	9.0	3	15	603	0	1	0	;
	428	454	9.0	4	15	604	0	1	0	;
	428	458	9.0	5	15	605	0	1	0	;
	429	455	9.0	6	15	606	0	1	0	;
	429	459	9.0	7	15	607	0	1	0	;
	430	460	9.0	8	15	608	0	1	0	;
	431	457	9.0	9	15	609	0	1	0	;
	431	461	9.0	10	15	610	0	1	0	;
	432	458	9.0	11	15	611	0	1	0	;
	432	462	9.0	12	15	612	0	1	0	;
	433	459	9.0	13	15	613	0	1	0	;
	433	463	9.0	14	15	614	0	1	0	;
	434	460	9.0	15	15	615	0	1	0	;
	434	464	9.0	16	15	616	0	1	0	;
	435	465	9.0	17	15	617	0	1	0	;
	436	462	9.0	18	15	618	0	1	0	;
	436	466	9.0	19	15	619	0	1	0	;
	437	463	9.0	20	15	620	0	1	0	;
	437	467	9.0	21	15	621	0	1	0	;
	438	464	9.0	22	15	622	0	1	0	;
	438	468	9.0	23	15	623	0	1	0	;
	439	465	9.0	24	15	624	0	1	0	;
	439	469	9.0	25	15	625	0	1	0	;
	440	470	9.0	26	15	626	0	1	0	;
	441	467	9.0	27	15	627	0	1	0	;
	441	471	9.0	28	15	628	0	1	0	;
	442	468	9.0	29	15	629	0	1	0	;
	442	472	9.0	30	15	630	0	1	0	;
	443	469	9.0	31	15	631	0	1	0	;
	443	473	9.0	32	15	632	0	1	0	;
	444	470	9.0	33	15	633	0	1	0	;
	444	474	9.0	34	15	634	0	1	0	;
	445	475	9.0	35	15	635	0	1	0	;
	446	472	9.0	36	15	636	0	1	0	;
	447	473	9.0	37	15	637	0	1	0	;
	448	474	9.0	38	15	638	0	1	0	;
	449	475	9.0	39	15	639	0	1	0	;
	451	477	9.0	0	16	640	0	1	0	;
	451	481	9.0	1	16	641	0	1	0	;
	452	478	9.0	2	16	642	0	1	0	;
	452	482	9.0	3	16	643	0	1	0	;
	453	479	9.0	4	16	644	0	1	0	;
	453	483	9.0	5	16	645	0	1	0	;
	454	480	9.0	6	16	646	0	1	0	;
	454	484	9.0	7	16	647	0	1	0	;
	455	485	9.0	8	16	648	0	1	0	;
	456	482	9.0	9	16	649	0	1	0	;
	456	486	9.0	10	16	650	0	1	0	;
	457	483	9.0	11	16	651	0	1	0	;
	457	487	9.0	12	16	652	0	1	0	;
	458	484	9.0	13	16	653	0	1	0	;
	458	488	9.0	14	16	654	0	1	0	;
	459	485	9.0	15	16	655	0	1	0	;
	459	489	9.0	16	16	656	0	1	0	;
	460	490	9.0	17	16	657	0	1	0	;
	461	487	9.0	18	16	658	0	1	0	;
	461	491	9.0	19	16	659	0	1	0	;
	462	488	9.0	20	16	660	0	1	0	;
	462	492	9.0	21	16	661	0	1	0	;
	463	489	9.0	22	16	662	0	1	0	;
	463	493	9.0	23	16	663	0	1	0	;
	464	490	9.0	24	16	664	0	1	0	;
	464	494	9.0	25	16	665	0	1	0	;
	465	495	9.0	26	16	666	0	1	0	;
	466	492	9.0	27	16	667	0	1	0	;
	466	496	9.0	28	16	668	0	1	0	;
	467	493	9.0	29	16	669	0	1	0	;
	467	497	9.0	30	16	670	0	1	0	;
	468	494	9.0	31	16	671	0	1	0	;
	468	498	9.0	32	16	672	0	1	0	;
	469	495	9.0	33	16	673	0	1	0	;
	469	499	9.0	34	16	674	0	1	0	;
	470	500	9.0	35	16	675	0	1	0	;
	471	497	9.0	36	16	676	0	1	0	;
	472	498	9.0	37	16	677	0	1	0	;
	473	499	9.0	38	16	678	0	1	0	;
	474	500	9.0	39	16	679	0	1	0	;
	476	502	9.0	0	17	680	0	1	0	;
	476	506	9.0	1	17	681	0	1	0	;
	477	503	9.0	2	17	682	0	1	0	;
	477	507	9.0	3	17	683	0	1	0	;
	478	504	9.0	4	17	684	0	1	0	;
	478	508	9.0	5	17	685	0	1	0	;
	479	505	9.0	6	17	686	0	1	0	;
	479	509	9.0	7	17	687	0	1	0	;
	480	510	9.0	8	17	688	0	1	0	;
	481	507	9.0	9	17	689	0	1	0	;
	481	511	9.0	10	17	690	0	1	0	;
	482	508	9.0	11	17	691	0	1	0	;
	482	512	9.0	12	17	692	0	1	0	;
	483	509	9.0	13	17	693	0	1	0	;
	483	513	9.0	14	17	694	0	1	0	;
	484	510	9.0	15	17	695	0	1	0	;
	484	514	9.0	16	17	696	0	1	0	;
	485	515	9.0	17	17	697	0	1	0	;
	486	512	9.0	18	17	698	0	1	0	;
	486	516	9.0	19	17	699	0	1	0	;
	487	513	9.0	20	17	700	0	1	0	;
	487	517	9.0	21	17	701	0	1	0	;
	488	514	9.0	22	17	702	0	1	0	;
	488	518	9.0	23	17	703	0	1	0	;
	489	515	9.0	24	17	704	0	1	0	;
	489	519	9.0	25	17	705	0	1	0	;
	490	520	9.0	26	17	706	0	1	0	;
	491	517	9.0	27	17	707	0	1	0	;
	491	521	9.0	28	17	708	0	1	0	;
	492	518	9.0	29	17	709	0	1	0	;
	492	522	9.0	30	17	710	0	1	0	;
	493	519	9.0	31	17	711	0	1	0	;
	493	523	9.0	32	17	712	0	1	0	;
	494	520	9.0	33	17	713	0	1	0	;
	494	524	9.0	34	17	714	0	1	0	;
	495	525	9.0	35	17	715	0	1	0	;
	496	522	9.0	36	17	716	0	1	0	;
	497	523	9.0	37	17	717	0	1	0	;
	498	524	9.0	38	17	718	0	1	0	;
	499	525	9.0	39	17	719	0	1	0	;
	501	527	9.0	0	18	720	0	1	0	;
	501	531	9.0	1	18	721	0	1	0	;
	502	528	9.0	2	18	722	0	1	0	;
	502	532	9.0	3	18	723	0	1	0	;
	503	529	9.0	4	18	724	0	1	0	;
	503	533	9.0	5	18	725	0	1	0	;
	504	530	9.0	6	18	726	0	1	0	;
	504	534	9.0	7	18	727	0	1	0	;
	505	535	9.0	8	18	728	0	1	0	;
	506	532	9.0	9	18	729	0	1	0	;
	506	536	9.0	10	18	730	0	1	0	;
	507	533	9.0	11	18	731	0	1	0	;
	507	537	9.0	12	18	732	0	1	0	;
	508	534	9.0	13	18	733	0	1	0	;
	508	538	9.0	14	18	734	0	1	0	;
	509	535	9.0	15	18	735	0	1	0	;
	509	539	9.0	16	18	736	0	1	0	;
	510	540	9.0	17	18	737	0	1	0	;
	511	537	9.0	18	18	738	0	1	0	;
	511	541	9.0	19	18	739	0	1	0	;
	512	538	9.0	20	18	740	0	1	0	;
	512	542	9.0	21	18	741	0	1	0	;
	513	539	9.0	22	18	742	0	1	0	;
	513	543	9.0	23	18	743	0	1	0	;
	514	540	9.0	24	18	744	0	1	0	;
	514	544	9.0	25	18	745	0	1	0	;
	515	545	9.0	26	18	746	0	1	0	;
	516	542	9.0	27	18	747	0	1	0	;
	516	546	9.0	28	18	748	0	1	0	;
	517	543	9.0	29	18	749	0	1	0	;
	517	547	9.0	30	18	750	0	1	0	;
	518	544	9.0	31	18	751	0	1	0	;
	518	548	9.0	32	18	752	0	1	0	;
	519	545	9.0	33	18	753	0	1	0	;
	519	549	9.0	34	18	754	0	1	0	;
	520	550	9.0	35	18	755	0	1	0	;
	521	547	9.0	36	18	756	0	1	0	;
	522	548	9.0	37	18	757	0	1	0	;
	523	549	9.0	38	18	758	0	1	0	;
	524	550	9.0	39	18	759	0	1	0	;
	551	577	5.0	0	0	0	1	1	1	;
	551	581	5.0	1	0	1	1	1	1	;
	552	578	5.0	2	0	2	1	1	1	;
	552	582	5.0	3	0	3	1	1	1	;
	553	579	5.0	4	0	4	1	1	1	;
	553	583	5.0	5	0	5	1	1	1	;
	554	580	5.0	6	0	6	1	1	1	;
	554	584	5.0	7	0	7	1	1	1	;
	555	585	5.0	8	0	8	1	1	1	;
	556	582	5.0	9	0	9	1	1	1	;
	556	586	5.0	10	0	10	1	1	1	;
	557	583	5.0	11	0	11	1	1	1	;
	557	587	5.0	12	0	12	1	1	1	;
	558	584	5.0	13	0	13	1	1	1	;
	558	588	5.0	14	0	14	1	1	1	;
	559	585	5.0	15	0	15	1	1	1	;
	559	589	5.0	16	0	16	1	1	1	;
	560	590	5.0	17	0	17	1	1	1	;
	561	587	5.0	18	0	18	1	1	1	;
	561	591	5.0	19	0	19	1	1	1	;
	562	588	5.0	20	0	20	1	1	1	;
	562	592	5.0	21	0	21	1	1	1	;
	563	589	5.0	22	0	22	1	1	1	;
	563	593	5.0	23	0	23	1	1	1	;
	564	590	5.0	24	0	24	1	1	1	;
	564	594	5.0	25	0	25	1	1	1	;
	565	595	5.0	26	0	26	1	1	1	;
	566	592	5.0	27	0	27	1	1	1	;
	566	596	5.0	28	0	28	1	1	1	;
	567	593	5.0	29	0	29	1	1	1	;
	567	597	5.0	30	0	30	1	1	1	;
	568	594	5.0	31	0	31	1	1	1	;
	568	598	5.0	32	0	32	1	1	1	;
	569	595	5.0	33	0	33	1	1	1	;
	569	599	5.0	34	0	34	1	1	1	;
	570	600	5.0	35	0	35	1	1	1	;
	571	597	5.0	36	0	36	1	1	1	;
	572	598	5.0	37	0	37	1	1	1	;
	573	599	5.0	38	0	38	1	1	1	;
	574	600	5.0	39	0	39	1	1	1	;
	576	602	5.0	0	1	40	1	1	1	;
	576	606	5.0	1	1	41	1	1	1	;
	577	603	5.0	2	1	42	1	1	1	;
	577	607	5.0	3	1	43	1	1	1	;
	578	604	5.0	4	1	44	1	1	1	;
	578	608	5.0	5	1	45	1	1	1	;
	579	605	5.0	6	1	46	1	1	1	;
	579	609	5.0	7	1	47	1	1	1	;
	580	610	5.0	8	1	48	1	1	1	;
	581	607	5.0	9	1	49	1	1	1	;
	581	611	5.0	10	1	50	1	1	1	;
	582	608	5.0	11	1	51	1	1	1	;
	582	612	5.0	12	1	52	1	1	1	;
	583	609	5.0	13	1	53	1	1	1	;
	583	613	5.0	14	1	54	1	1	1	;
	584	610	5.0	15	1	55	1	1	1	;
	584	614	5.0	16	1	56	1	1	1	;
	585	615	5.0	17	1	57	1	1	1	;
	586	612	5.0	18	1	58	1	1	1	;
	586	616	5.0	19	1	59	1	1	1	;
	587	613	5.0	20	1	60	1	1	1	;
	587	617	5.0	21	1	61	1	1	1	;
	588	614	5.0	22	1	62	1	1	1	;
	588	618	5.0	23	1	63	1	1	1	;
	589	615	5.0	24	1	64	1	1	1	;
	589	619	5.0	25	1	65	1	1	1	;
	590	620	5.0	26	1	66	1	1	1	;
	591	617	5.0	27	1	67	1	1	1	;
	591	621	5.0	28	1	68	1	1	1	;
	592	618	5.0	29	1	69	1	1	1	;
	592	622	5.0	30	1	70	1	1	1	;
	593	619	5.0	31	1	71	1	1	1	;
	593	623	5.0	32	1	72	1	1	1	;
	594	620	5.0	33	1	73	1	1	1	;
	594	624	5.0	34	1	74	1	1	1	;
	595	625	5.0	35	1	75	1	1	1	;
	596	622	5.0	36	1	76	1	1	1	;
	597	623	5.0	37	1	77	1	1	1	;
	598	624	5.0	38	1	78	1	1	1	;
	599	625	5.0	39	1	79	1	1	1	;
	601	627	5.0	0	2	80	1	1	1	;
	601	631	5.0	1	2	81	1	1	1	;
	602	628	5.0	2	2	82	1	1	1	;
	602	632	5.0	3	2	83	1	1	1	;
	603	629	5.0	4	2	84	1	1	1	;
	603	633	5.0	5	2	85	1	1	1	;
	604	630	5.0	6	2	86	1	1	1	;
	604	634	5.0	7	2	87	1	1	1	;
	605	635	5.0	8	2	88	1	1	1	;
	606	632	5.0	9	2	89	1	1	1	;
	606	636	5.0	10	2	90	1	1	1	;
	607	633	5.0	11	2	91	1	1	1	;
	607	637	5.0	12	2	92	1	1	1	;
	608	634	5.0	13	2	93	1	1	1	;
	608	638	5.0	14	2	94	1	1	1	;
	609	635	5.0	15	2	95	1	1	1	;
	609	639	5.0	16	2	96	1	1	1	;
	610	640	5.0	17	2	97	1	1	1	;
	611	637	5.0	18	2	98	1	1	1	;
	611	641	5.0	19	2	99	1	1	1	;
	612	638	5.0	20	2	100	1	1	1	;
	612	642	5.0	21	2	101	1	1	1	;
	613	639	5.0	22	2	102	1	1	1	;
	613	643	5.0	23	2	103	1	1	1	;
	614	640	5.0	24	2	104	1	1	1	;
	614	644	5.0	25	2	105	1	1	1	;
	615	645	5.0	26	2	106	1	1	1	;
	616	642	5.0	27	2	107	1	1	1	;
	616	646	5.0	28	2	108	1	1	1	;
	617	643	5.0	29	2	109	1	1	1	;
	617	647	5.0	30	2	110	1	1	1	;
	618	644	5.0	31	2	111	1	1	1	;
	618	648	5.0	32	2	112	1	1	1	;
	619	645	5.0	33	2	113	1	1	1	;
	619	649	5.0	34	2	114	1	1	1	;
	620	650	5.0	35	2	115	1	1	1	;
	621	647	5.0	36	2	116	1	1	1	;
	622	648	5.0	37	2	117	1	1	1	;
	623	649	5.0	38	2	118	1	1	1	;
	624	650	5.0	39	2	119	1	1	1	;
	626	652	5.0	0	3	120	1	1	1	;
	626	656	5.0	1	3	121	1	1	1	;
	627	653	5.0	2	3	122	1	1	1	;
	627	657	5.0	3	3	123	1	1	1	;
	628	654	5.0	4	3	124	1	1	1	;
	628	658	5.0	5	3	125	1	1	1	;
	629	655	5.0	6	3	126	1	1	1	;
	629	659	5.0	7	3	127	1	1	1	;
	630	660	5.0	8	3	128	1	1	1	;
	631	657	5.0	9	3	129	1	1	1	;
	631	661	5.0	10	3	130	1	1	1	;
	632	658	5.0	11	3	131	1	1	1	;
	632	662	5.0	12	3	132	1	1	1	;
	633	659	5.0	13	3	133	1	1	1	;
	633	663	5.0	14	3	134	1	1	1	;
	634	660	5.0	15	3	135	1	1	1	;
	634	664	5.0	16	3	136	1	1	1	;
	635	665	5.0	17	3	137	1	1	1	;
	636	662	5.0	18	3	138	1	1	1	;
	636	666	5.0	19	3	139	1	1	1	;
	637	663	5.0	20	3	140	1	1	1	;
	637	667	5.0	21	3	141	1	1	1	;
	638	664	5.0	22	3	142	1	1	1	;
	638	668	5.0	23	3	143	1	1	1	;
	639	665	5.0	24	3	144	1	1	1	;
	639	669	5.0	25	3	145	1	1	1	;
	640	670	5.0	26	3	146	1	1	1	;
	641	667	5.0	27	3	147	1	1	1	;
	641	671	5.0	28	3	148	1	1	1	;
	642	668	5.0	29	3	149	1	1	1	;
	642	672	5.0	30	3	150	1	1	1	;
	643	669	5.0	31	3	151	1	1	1	;
	643	673	5.0	32	3	152	1	1	1	;
	644	670	5.0	33	3	153	1	1	1	;
	644	674	5.0	34	3	154	1	1	1	;
	645	675	5.0	35	3	155	1	1	1	;
	646	672	5.0	36	3	156	1	1	1	;
	647	673	5.0	37	3	157	1	1	1	;
	648	674	5.0	38	3	158	1	1	1	;
	649	675	5.0	39	3	159	1	1	1	;
	651	677	5.0	0	4	160	1	1	1	;
	651	681	5.0	1	4	161	1	1	1	;
	652	678	5.0	2	4	162	1	1	1	;
	652	682	5.0	3	4	163	1	1	1	;
	653	679	5.0	4	4	164	1	1	1	;
	653	683	5.0	5	4	165	1	1	1	;
	654	680	5.0	6	4	166	1	1	1	;
	654	684	5.0	7	4	167	1	1	1	;
	655	685	5.0	8	4	168	1	1	1	;
	656	682	5.0	9	4	169	1	1	1	;
	656	686	5.0	10	4	170	1	1	1	;
	657	683	5.0	11	4	171	1	1	1	;
	657	687	5.0	12	4	172	1	1	1	;
	658	684	5.0	13	4	173	1	1	1	;
	658	688	5.0	14	4	174	1	1	1	;
	659	685	5.0	15	4	175	1	1	1	;
	659	689	5.0	16	4	176	1	1	1	;
	660	690	5.0	17	4	177	1	1	1	;
	661	687	5.0	18	4	178	1	1	1	;
	661	691	5.0	19	4	179	1	1	1	;
	662	688	5.0	20	4	180	1	1	1	;
	662	692	5.0	21	4	181	1	1	1	;
	663	689	5.0	22	4	182	1	1	1	;
	663	693	5.0	23	4	183	1	1	1	;
	664	690	5.0	24	4	184	1	1	1	;
	664	694	5.0	25	4	185	1	1	1	;
	665	695	5.0	26	4	186	1	1	1	;
	666	692	5.0	27	4	187	1	1	1	;
	666	696	5.0	28	4	188	1	1	1	;
	667	693	5.0	29	4	189	1	1	1	;
	667	697	5.0	30	4	190	1	1	1	;
	668	694	5.0	31	4	191	1	1	1	;
	668	698	5.0	32	4	192	1	1	1	;
	669	695	5.0	33	4	193	1	1	1	;
	669	699	5.0	34	4	194	1	1	1	;
	670	700	5.0	35	4	195	1	1	1	;
	671	697	5.0	36	4	196	1	1	1	;
	672	698	5.0	37	4	197	1	1	1	;
	673	699	5.0	38	4	198	1	1	1	;
	674	700	5.0	39	4	199	1	1	1	;
	676	702	5.0	0	5	200	1	1	1	;
	676	706	5.0	1	5	201	1	1	1	;
	677	703	5.0	2	5	202	1	1	1	;
	677	707	5.0	3	5	203	1	1	1	;
	678	704	5.0	4	5	204	1	1	1	;
	678	708	5.0	5	5	205	1	1	1	;
	679	705	5.0	6	5	206	1	1	1	;
	679	709	5.0	7	5	207	1	1	1	;
	680	710	5.0	8	5	208	1	1	1	;
	681	707	5.0	9	5	209	1	1	1	;
	681	711	5.0	10	5	210	1	1	1	;
	682	708	5.0	11	5	211	1	1	1	;
	682	712	5.0	12	5	212	1	1	1	;
	683	709	5.0	13	5	213	1	1	1	;
	683	713	5.0	14	5	214	1	1	1	;
	684	710	5.0	15	5	215	1	1	1	;
	684	714	5.0	16	5	216	1	1	1	;
	685	715	5.0	17	5	217	1	1	1	;
	686	712	5.0	18	5	218	1	1	1	;
	686	716	5.0	19	5	219	1	1	1	;
	687	713	5.0	20	5	220	1	1	1	;
	687	717	5.0	21	5	221	1	1	1	;
	688	714	5.0	22	5	222	1	1	1	;
	688	718	5.0	23	5	223	1	1	1	;
	689	715	5.0	24	5	224	1	1	1	;
	689	719	5.0	25	5	225	1	1	1	;
	690	720	5.0	26	5	226	1	1	1	;
	691	717	5.0	27	5	227	1	1	1	;
	691	721	5.0	28	5	228	1	1	1	;
	692	718	5.0	29	5	229	1	1	1	;
	692	722	5.0	30	5	230	1	1	1	;
	693	719	5.0	31	5	231	1	1	1	;
	693	723	5.0	32	5	232	1	1	1	;
	694	720	5.0	33	5	233	1	1	1	;
	694	724	5.0	34	5	234	1	1	1	;
	695	725	5.0	35	5	235	1	1	1	;
	696	722	5.0	36	5	236	1	1	1	;
	697	723	5.0	37	5	237	1	1	1	;
	698	724	5.0	38	5	238	1	1	1	;