<NUMBER OF ZONES> 6
<NUMBER OF NODES> 24
<FIRST THRU NODE> 1
<NUMBER OF LINKS> 76
<ORIGINAL HEADER> 
<END OF METADATA>


~	init_node	term_node	capacity	length	free_flow_time	b	power	speed	toll	link_type	prev_init_node	prev_term_node	;
	1	2	25900.20064	6	6	0.15	4	0	0	1	1	2	;
	1	7	23403.47319	4	4	0.15	4	0	0	1	1	3	;
	2	1	25900.20064	6	6	0.15	4	0	0	1	2	1	;
	2	10	4958.180928	5	5	0.15	4	0	0	1	2	6	;
	3	18	4993.510694	8	8	0.15	4	0	0	1	10	17	;
	3	17	4854.917717	4	4	0.15	4	0	0	1	10	16	;
	3	16	13512.00155	6	6	0.15	4	0	0	1	10	15	;
	3	4	10000.0	5	5	0.15	4	0	0	1	10	11	;
	3	13	13915.78842	3	3	0.15	4	0	0	1	10	9	;
	4	15	4876.508287	4	4	0.15	4	0	0	1	11	14	;
	4	14	4908.82673	6	6	0.15	4	0	0	1	11	12	;
	4	3	10000.0	5	5	0.15	4	0	0	1	11	10	;
	4	8	4908.82673	6	6	0.15	4	0	0	1	11	4	;
	5	24	5091.256152	4	4	0.15	4	0	0	1	13	24	;
	5	14	25900.20064	3	3	0.15	4	0	0	1	13	12	;
	6	20	5002.607563	4	4	0.15	4	0	0	1	20	19	;
	6	21	5059.91234	6	6	0.15	4	0	0	1	20	21	;
	6	22	5075.697193	5	5	0.15	4	0	0	1	20	22	;
	6	19	23403.47319	4	4	0.15	4	0	0	1	20	18	;
	7	1	23403.47319	4	4	0.15	4	0	0	1	3	1	;
	7	8	17110.52372	4	4	0.15	4	0	0	1	3	4	;
	7	14	23403.47319	4	4	0.15	4	0	0	1	3	12	;
	8	9	17782.7941	2	2	0.15	4	0	0	1	4	5	;
	8	7	17110.52372	4	4	0.15	4	0	0	1	4	3	;
	8	4	4908.82673	6	6	0.15	4	0	0	1	4	11	;
	9	8	17782.7941	2	2	0.15	4	0	0	1	5	4	;
	9	13	10000.0	5	5	0.15	4	0	0	1	5	9	;
	9	10	4947.995469	4	4	0.15	4	0	0	1	5	6	;
	10	12	4898.587646	2	2	0.15	4	0	0	1	6	8	;
	10	9	4947.995469	4	4	0.15	4	0	0	1	6	5	;
	10	2	4958.180928	5	5	0.15	4	0	0	1	6	2	;
	11	12	7841.81131	3	3	0.15	4	0	0	1	7	8	;
	11	19	23403.47319	2	2	0.15	4	0	0	1	7	18	;
	12	10	4898.587646	2	2	0.15	4	0	0	1	8	6	;
	12	11	7841.81131	3	3	0.15	4	0	0	1	8	7	;
	12	13	5050.193156	10	10	0.15	4	0	0	1	8	9	;
	12	17	5045.822583	5	5	0.15	4	0	0	1	8	16	;
	13	9	10000.0	5	5	0.15	4	0	0	1	9	5	;
	13	12	5050.193156	10	10	0.15	4	0	0	1	9	8	;
	13	3	13915.78842	3	3	0.15	4	0	0	1	9	10	;
	14	4	4908.82673	6	6	0.15	4	0	0	1	12	11	;
	14	5	25900.20064	3	3	0.15	4	0	0	1	12	13	;
	14	7	23403.47319	4	4	0.15	4	0	0	1	12	3	;
	15	4	4876.508287	4	4	0.15	4	0	0	1	14	11	;
	15	16	5127.526119	5	5	0.15	4	0	0	1	14	15	;
	15	23	4924.790605	4	4	0.15	4	0	0	1	14	23	;
	16	22	9599.180565	3	3	0.15	4	0	0	1	15	22	;
	16	3	13512.00155	6	6	0.15	4	0	0	1	15	10	;
	16	15	5127.526119	5	5	0.15	4	0	0	1	15	14	;
	16	20	14564.75315	3	3	0.15	4	0	0	1	15	19	;
	17	12	5045.822583	5	5	0.15	4	0	0	1	16	8	;
	17	3	4854.917717	4	4	0.15	4	0	0	1	16	10	;
	17	19	19679.89671	3	3	0.15	4	0	0	1	16	18	;
	17	18	5229.910063	2	2	0.15	4	0	0	1	16	17	;
	18	20	4823.950831	2	2	0.15	4	0	0	1	17	19	;
	18	3	4993.510694	8	8	0.15	4	0	0	1	17	10	;
	18	17	5229.910063	2	2	0.15	4	0	0	1	17	16	;
	19	11	23403.47319	2	2	0.15	4	0	0	1	18	7	;
	19	17	19679.89671	3	3	0.15	4	0	0	1	18	16	;
	19	6	23403.47319	4	4	0.15	4	0	0	1	18	20	;
	20	16	14564.75315	3	3	0.15	4	0	0	1	19	15	;
	20	18	4823.950831	2	2	0.15	4	0	0	1	19	17	;
	20	6	5002.607563	4	4	0.15	4	0	0	1	19	20	;
	21	24	4885.357564	3	3	0.15	4	0	0	1	21	24	;
	21	6	5059.91234	6	6	0.15	4	0	0	1	21	20	;
	21	22	5229.910063	2	2	0.15	4	0	0	1	21	22	;
	22	16	9599.180565	3	3	0.15	4	0	0	1	22	15	;
	22	6	5075.697193	5	5	0.15	4	0	0	1	22	20	;
	22	21	5229.910063	2	2	0.15	4	0	0	1	22	21	;
	22	23	5000.0	4	4	0.15	4	0	0	1	22	23	;
	23	15	4924.790605	4	4	0.15	4	0	0	1	23	14	;
	23	22	5000.0	4	4	0.15	4	0	0	1	23	22	;
	23	24	5078.508436	2	2	0.15	4	0	0	1	23	24	;
	24	21	4885.357564	3	3	0.15	4	0	0	1	24	21	;
	24	5	5091.256152	4	4	0.15	4	0	0	1	24	13	;
	24	23	5078.508436	2	2	0.15	4	0	0	1	24	23	;