<NUMBER OF ZONES> 6
<NUMBER OF NODES> 24
<FIRST THRU NODE> 1
<NUMBER OF LINKS> 76
<ORIGINAL HEADER> 
<END OF METADATA>


~	init_node	term_node	capacity	length	free_flow_time	b	power	speed	toll	link_type	;
	1	2	25900.20064	6	6	0.15	4	0	0	1	;
	1	10	23403.47319	4	4	0.15	4	0	0	1	;
	2	1	25900.20064	6	6	0.15	4	0	0	1	;
	2	20	4958.180928	5	5	0.15	4	0	0	1	;
	3	17	4993.510694	8	8	0.15	4	0	0	1	;
	3	16	4854.917717	4	4	0.15	4	0	0	1	;
	3	15	13512.00155	6	6	0.15	4	0	0	1	;
	3	4	10000.0	5	5	0.15	4	0	0	1	;
	3	9	13915.78842	3	3	0.15	4	0	0	1	;
	4	14	4876.508287	4	4	0.15	4	0	0	1	;
	4	12	4908.82673	6	6	0.15	4	0	0	1	;
	4	3	10000.0	5	5	0.15	4	0	0	1	;
	4	11	4908.82673	6	6	0.15	4	0	0	1	;
	5	24	5091.256152	4	4	0.15	4	0	0	1	;
	5	12	25900.20064	3	3	0.15	4	0	0	1	;
	6	21	5059.91234	6	6	0.15	4	0	0	1	;
	6	19	5002.607563	4	4	0.15	4	0	0	1	;
	6	22	5075.697193	5	5	0.15	4	0	0	1	;
	6	18	23403.47319	4	4	0.15	4	0	0	1	;
	7	18	23403.47319	2	2	0.15	4	0	0	1	;
	7	8	7841.81131	3	3	0.15	4	0	0	1	;
	8	7	7841.81131	3	3	0.15	4	0	0	1	;
	8	9	5050.193156	10	10	0.15	4	0	0	1	;
	8	16	5045.822583	5	5	0.15	4	0	0	1	;
	8	20	4898.587646	2	2	0.15	4	0	0	1	;
	9	13	10000.0	5	5	0.15	4	0	0	1	;
	9	8	5050.193156	10	10	0.15	4	0	0	1	;
	9	3	13915.78842	3	3	0.15	4	0	0	1	;
	10	1	23403.47319	4	4	0.15	4	0	0	1	;
	10	11	17110.52372	4	4	0.15	4	0	0	1	;
	10	12	23403.47319	4	4	0.15	4	0	0	1	;
	11	4	4908.82673	6	6	0.15	4	0	0	1	;
	11	13	17782.7941	2	2	0.15	4	0	0	1	;
	11	10	17110.52372	4	4	0.15	4	0	0	1	;
	12	10	23403.47319	4	4	0.15	4	0	0	1	;
	12	4	4908.82673	6	6	0.15	4	0	0	1	;
	12	5	25900.20064	3	3	0.15	4	0	0	1	;
	13	11	17782.7941	2	2	0.15	4	0	0	1	;
	13	20	4947.995469	4	4	0.15	4	0	0	1	;
	13	9	10000.0	5	5	0.15	4	0	0	1	;
	14	23	4924.790605	4	4	0.15	4	0	0	1	;
	14	4	4876.508287	4	4	0.15	4	0	0	1	;
	14	15	5127.526119	5	5	0.15	4	0	0	1	;
	15	3	13512.00155	6	6	0.15	4	0	0	1	;
	15	22	9599.180565	3	3	0.15	4	0	0	1	;
	15	14	5127.526119	5	5	0.15	4	0	0	1	;
	15	19	14564.75315	3	3	0.15	4	0	0	1	;
	16	8	5045.822583	5	5	0.15	4	0	0	1	;
	16	3	4854.917717	4	4	0.15	4	0	0	1	;
	16	17	5229.910063	2	2	0.15	4	0	0	1	;
	16	18	19679.89671	3	3	0.15	4	0	0	1	;
	17	16	5229.910063	2	2	0.15	4	0	0	1	;
	17	19	4823.950831	2	2	0.15	4	0	0	1	;
	17	3	4993.510694	8	8	0.15	4	0	0	1	;
	18	7	23403.47319	2	2	0.15	4	0	0	1	;
	18	16	19679.89671	3	3	0.15	4	0	0	1	;
	18	6	23403.47319	4	4	0.15	4	0	0	1	;
	19	6	5002.607563	4	4	0.15	4	0	0	1	;
	19	15	14564.75315	3	3	0.15	4	0	0	1	;
	19	17	4823.950831	2	2	0.15	4	0	0	1	;
	20	8	4898.587646	2	2	0.15	4	0	0	1	;
	20	2	4958.180928	5	5	0.15	4	0	0	1	;
	20	13	4947.995469	4	4	0.15	4	0	0	1	;
	21	6	5059.91234	6	6	0.15	4	0	0	1	;
	21	22	5229.910063	2	2	0.15	4	0	0	1	;
	21	24	4885.357564	3	3	0.15	4	0	0	1	;
	22	15	9599.180565	3	3	0.15	4	0	0	1	;
	22	6	5075.697193	5	5	0.15	4	0	0	1	;
	22	21	5229.910063	2	2	0.15	4	0	0	1	;
	22	23	5000.0	4	4	0.15	4	0	0	1	;
	23	14	4924.790605	4	4	0.15	4	0	0	1	;
	23	22	5000.0	4	4	0.15	4	0	0	1	;
	23	24	5078.508436	2	2	0.15	4	0	0	1	;
	24	21	4885.357564	3	3	0.15	4	0	0	1	;
	24	5	5091.256152	4	4	0.15	4	0	0	1	;
	24	23	5078.508436	2	2	0.15	4	0	0	1	;