<NUMBER OF ZONES> 8
<TOTAL OD FLOW> 1000.0
<END OF METADATA>



Origin  1
	5 :	58.420150263527255;	6 :	47.822930964876115;	7 :	50.782695594282465;	8 :	16.35347020326903;

Origin  2
	5 :	86.39211380186566;	6 :	33.22219468035234;	7 :	103.03132222812619;	8 :	66.77144385395606;

Origin  3
	5 :	6.818430695351167;	6 :	130.41177343552226;	7 :	66.18959688752908;	8 :	18.293542061581835;

Origin  4
	5 :	36.40303700723878;	6 :	118.75247303342472;	7 :	28.80612657793605;	8 :	131.52869871116104;