<NUMBER OF ZONES> 8
<NUMBER OF NODES> 88
<FIRST THRU NODE> 1
<NUMBER OF LINKS> 348
<ORIGINAL HEADER> 
<END OF METADATA>


~	init_node	term_node	free_flow_time	original_link	time	original_TS_link	user_state	link_type	price_index	;
	9	14	5.5	0	0	0	0	1	0	;
	9	15	7.0	1	0	1	0	1	0	;
	10	15	5.0	2	0	2	0	1	0	;
	10	16	9.0	3	0	3	0	1	0	;
	11	16	7.5	4	0	4	0	1	0	;
	10	13	5.5	5	0	5	0	1	0	;
	11	13	7.0	6	0	6	0	1	0	;
	11	14	5.0	7	0	7	0	1	0	;
	12	14	9.0	8	0	8	0	1	0	;
	12	15	7.5	9	0	9	0	1	0	;
	13	18	5.5	0	1	10	0	1	0	;
	13	19	7.0	1	1	11	0	1	0	;
	14	19	5.0	2	1	12	0	1	0	;
	14	20	9.0	3	1	13	0	1	0	;
	15	20	7.5	4	1	14	0	1	0	;
	14	17	5.5	5	1	15	0	1	0	;
	15	17	7.0	6	1	16	0	1	0	;
	15	18	5.0	7	1	17	0	1	0	;
	16	18	9.0	8	1	18	0	1	0	;
	16	19	7.5	9	1	19	0	1	0	;
	17	22	5.5	0	2	20	0	1	0	;
	17	23	7.0	1	2	21	0	1	0	;
	18	23	5.0	2	2	22	0	1	0	;
	18	24	9.0	3	2	23	0	1	0	;
	19	24	7.5	4	2	24	0	1	0	;
	18	21	5.5	5	2	25	0	1	0	;
	19	21	7.0	6	2	26	0	1	0	;
	19	22	5.0	7	2	27	0	1	0	;
	20	22	9.0	8	2	28	0	1	0	;
	20	23	7.5	9	2	29	0	1	0	;
	21	26	5.5	0	3	30	0	1	0	;
	21	27	7.0	1	3	31	0	1	0	;
	22	27	5.0	2	3	32	0	1	0	;
	22	28	9.0	3	3	33	0	1	0	;
	23	28	7.5	4	3	34	0	1	0	;
	22	25	5.5	5	3	35	0	1	0	;
	23	25	7.0	6	3	36	0	1	0	;
	23	26	5.0	7	3	37	0	1	0	;
	24	26	9.0	8	3	38	0	1	0	;
	24	27	7.5	9	3	39	0	1	0	;
	25	30	5.5	0	4	40	0	1	0	;
	25	31	7.0	1	4	41	0	1	0	;
	26	31	5.0	2	4	42	0	1	0	;
	26	32	9.0	3	4	43	0	1	0	;
	27	32	7.5	4	4	44	0	1	0	;
	26	29	5.5	5	4	45	0	1	0	;
	27	29	7.0	6	4	46	0	1	0	;
	27	30	5.0	7	4	47	0	1	0	;
	28	30	9.0	8	4	48	0	1	0	;
	28	31	7.5	9	4	49	0	1	0	;
	29	34	5.5	0	5	50	0	1	0	;
	29	35	7.0	1	5	51	0	1	0	;
	30	35	5.0	2	5	52	0	1	0	;
	30	36	9.0	3	5	53	0	1	0	;
	31	36	7.5	4	5	54	0	1	0	;
	30	33	5.5	5	5	55	0	1	0	;
	31	33	7.0	6	5	56	0	1	0	;
	31	34	5.0	7	5	57	0	1	0	;
	32	34	9.0	8	5	58	0	1	0	;
	32	35	7.5	9	5	59	0	1	0	;
	33	38	5.5	0	6	60	0	1	0	;
	33	39	7.0	1	6	61	0	1	0	;
	34	39	5.0	2	6	62	0	1	0	;
	34	40	9.0	3	6	63	0	1	0	;
	35	40	7.5	4	6	64	0	1	0	;
	34	37	5.5	5	6	65	0	1	0	;
	35	37	7.0	6	6	66	0	1	0	;
	35	38	5.0	7	6	67	0	1	0	;
	36	38	9.0	8	6	68	0	1	0	;
	36	39	7.5	9	6	69	0	1	0	;
	37	42	5.5	0	7	70	0	1	0	;
	37	43	7.0	1	7	71	0	1	0	;
	38	43	5.0	2	7	72	0	1	0	;
	38	44	9.0	3	7	73	0	1	0	;
	39	44	7.5	4	7	74	0	1	0	;
	38	41	5.5	5	7	75	0	1	0	;
	39	41	7.0	6	7	76	0	1	0	;
	39	42	5.0	7	7	77	0	1	0	;
	40	42	9.0	8	7	78	0	1	0	;
	40	43	7.5	9	7	79	0	1	0	;
	41	46	5.5	0	8	80	0	1	0	;
	41	47	7.0	1	8	81	0	1	0	;
	42	47	5.0	2	8	82	0	1	0	;
	42	48	9.0	3	8	83	0	1	0	;
	43	48	7.5	4	8	84	0	1	0	;
	42	45	5.5	5	8	85	0	1	0	;
	43	45	7.0	6	8	86	0	1	0	;
	43	46	5.0	7	8	87	0	1	0	;
	44	46	9.0	8	8	88	0	1	0	;
	44	47	7.5	9	8	89	0	1	0	;
	49	54	1.5	0	0	0	1	1	1	;
	49	55	3.0	1	0	1	1	1	1	;
	50	55	1.0	2	0	2	1	1	1	;
	50	56	5.0	3	0	3	1	1	1	;
	51	56	3.5	4	0	4	1	1	1	;
	50	53	1.5	5	0	5	1	1	1	;
	51	53	3.0	6	0	6	1	1	1	;
	51	54	1.0	7	0	7	1	1	1	;
	52	54	5.0	8	0	8	1	1	1	;
	52	55	3.5	9	0	9	1	1	1	;
	53	58	1.5	0	1	10	1	1	1	;
	53	59	3.0	1	1	11	1	1	1	;
	54	59	1.0	2	1	12	1	1	1	;
	54	60	5.0	3	1	13	1	1	1	;
	55	60	3.5	4	1	14	1	1	1	;
	54	57	1.5	5	1	15	1	1	1	;
	55	57	3.0	6	1	16	1	1	1	;
	55	58	1.0	7	1	17	1	1	1	;
	56	58	5.0	8	1	18	1	1	1	;
	56	59	3.5	9	1	19	1	1	1	;
	57	62	1.5	0	2	20	1	1	1	;
	57	63	3.0	1	2	21	1	1	1	;
	58	63	1.0	2	2	22	1	1	1	;
	58	64	5.0	3	2	23	1	1	1	;
	59	64	3.5	4	2	24	1	1	1	;
	58	61	1.5	5	2	25	1	1	1	;
	59	61	3.0	6	2	26	1	1	1	;
	59	62	1.0	7	2	27	1	1	1	;
	60	62	5.0	8	2	28	1	1	1	;
	60	63	3.5	9	2	29	1	1	1	;
	61	66	1.5	0	3	30	1	1	1	;
	61	67	3.0	1	3	31	1	1	1	;
	62	67	1.0	2	3	32	1	1	1	;
	62	68	5.0	3	3	33	1	1	1	;
	63	68	3.5	4	3	34	1	1	1	;
	62	65	1.5	5	3	35	1	1	1	;
	63	65	3.0	6	3	36	1	1	1	;
	63	66	1.0	7	3	37	1	1	1	;
	64	66	5.0	8	3	38	1	1	1	;
	64	67	3.5	9	3	39	1	1	1	;
	65	70	1.5	0	4	40	1	1	1	;
	65	71	3.0	1	4	41	1	1	1	;
	66	71	1.0	2	4	42	1	1	1	;
	66	72	5.0	3	4	43	1	1	1	;
	67	72	3.5	4	4	44	1	1	1	;
	66	69	1.5	5	4	45	1	1	1	;
	67	69	3.0	6	4	46	1	1	1	;
	67	70	1.0	7	4	47	1	1	1	;
	68	70	5.0	8	4	48	1	1	1	;
	68	71	3.5	9	4	49	1	1	1	;
	69	74	1.5	0	5	50	1	1	1	;
	69	75	3.0	1	5	51	1	1	1	;
	70	75	1.0	2	5	52	1	1	1	;
	70	76	5.0	3	5	53	1	1	1	;
	71	76	3.5	4	5	54	1	1	1	;
	70	73	1.5	5	5	55	1	1	1	;
	71	73	3.0	6	5	56	1	1	1	;
	71	74	1.0	7	5	57	1	1	1	;
	72	74	5.0	8	5	58	1	1	1	;
	72	75	3.5	9	5	59	1	1	1	;
	73	78	1.5	0	6	60	1	1	1	;
	73	79	3.0	1	6	61	1	1	1	;
	74	79	1.0	2	6	62	1	1	1	;
	74	80	5.0	3	6	63	1	1	1	;
	75	80	3.5	4	6	64	1	1	1	;
	74	77	1.5	5	6	65	1	1	1	;
	75	77	3.0	6	6	66	1	1	1	;
	75	78	1.0	7	6	67	1	1	1	;
	76	78	5.0	8	6	68	1	1	1	;
	76	79	3.5	9	6	69	1	1	1	;
	77	82	1.5	0	7	70	1	1	1	;
	77	83	3.0	1	7	71	1	1	1	;
	78	83	1.0	2	7	72	1	1	1	;
	78	84	5.0	3	7	73	1	1	1	;
	79	84	3.5	4	7	74	1	1	1	;
	78	81	1.5	5	7	75	1	1	1	;
	79	81	3.0	6	7	76	1	1	1	;
	79	82	1.0	7	7	77	1	1	1	;
	80	82	5.0	8	7	78	1	1	1	;
	80	83	3.5	9	7	79	1	1	1	;
	81	86	1.5	0	8	80	1	1	1	;
	81	87	3.0	1	8	81	1	1	1	;
	82	87	1.0	2	8	82	1	1	1	;
	82	88	5.0	3	8	83	1	1	1	;
	83	88	3.5	4	8	84	1	1	1	;
	82	85	1.5	5	8	85	1	1	1	;
	83	85	3.0	6	8	86	1	1	1	;
	83	86	1.0	7	8	87	1	1	1	;
	84	86	5.0	8	8	88	1	1	1	;
	84	87	3.5	9	8	89	1	1	1	;
	1	5	50.0	-1	-1	-1	-1	-1	0	;
	1	6	50.0	-1	-1	-1	-1	-1	0	;
	1	7	50.0	-1	-1	-1	-1	-1	0	;
	1	8	50.0	-1	-1	-1	-1	-1	0	;
	2	5	50.0	-1	-1	-1	-1	-1	0	;
	2	6	50.0	-1	-1	-1	-1	-1	0	;
	2	7	50.0	-1	-1	-1	-1	-1	0	;
	2	8	50.0	-1	-1	-1	-1	-1	0	;
	3	5	50.0	-1	-1	-1	-1	-1	0	;
	3	6	50.0	-1	-1	-1	-1	-1	0	;
	3	7	50.0	-1	-1	-1	-1	-1	0	;
	3	8	50.0	-1	-1	-1	-1	-1	0	;
	4	5	50.0	-1	-1	-1	-1	-1	0	;
	4	6	50.0	-1	-1	-1	-1	-1	0	;
	4	7	50.0	-1	-1	-1	-1	-1	0	;
	4	8	50.0	-1	-1	-1	-1	-1	0	;
	1	9	1.0	-1	0	-1	0	-1	0	;
	2	10	1.0	-1	0	-1	0	-1	0	;
	3	11	1.0	-1	0	-1	0	-1	0	;
	4	12	1.0	-1	0	-1	0	-1	0	;
	1	13	1.0	-1	1	-1	0	-1	0	;
	2	14	1.0	-1	1	-1	0	-1	0	;
	3	15	1.0	-1	1	-1	0	-1	0	;
	4	16	1.0	-1	1	-1	0	-1	0	;
	1	17	1.0	-1	2	-1	0	-1	0	;
	2	18	1.0	-1	2	-1	0	-1	0	;
	3	19	1.0	-1	2	-1	0	-1	0	;
	4	20	1.0	-1	2	-1	0	-1	0	;
	1	21	1.0	-1	3	-1	0	-1	0	;
	2	22	1.0	-1	3	-1	0	-1	0	;
	3	23	1.0	-1	3	-1	0	-1	0	;
	4	24	1.0	-1	3	-1	0	-1	0	;
	1	25	1.0	-1	4	-1	0	-1	0	;
	2	26	1.0	-1	4	-1	0	-1	0	;
	3	27	1.0	-1	4	-1	0	-1	0	;
	4	28	1.0	-1	4	-1	0	-1	0	;
	1	29	1.0	-1	5	-1	0	-1	0	;
	2	30	1.0	-1	5	-1	0	-1	0	;
	3	31	1.0	-1	5	-1	0	-1	0	;
	4	32	1.0	-1	5	-1	0	-1	0	;
	1	33	1.0	-1	6	-1	0	-1	0	;
	2	34	1.0	-1	6	-1	0	-1	0	;
	3	35	1.0	-1	6	-1	0	-1	0	;
	4	36	1.0	-1	6	-1	0	-1	0	;
	1	37	1.0	-1	7	-1	0	-1	0	;
	2	38	1.0	-1	7	-1	0	-1	0	;
	3	39	1.0	-1	7	-1	0	-1	0	;
	4	40	1.0	-1	7	-1	0	-1	0	;
	1	41	1.0	-1	8	-1	0	-1	0	;
	2	42	1.0	-1	8	-1	0	-1	0	;
	3	43	1.0	-1	8	-1	0	-1	0	;
	4	44	1.0	-1	8	-1	0	-1	0	;
	1	45	1.0	-1	9	-1	0	-1	0	;
	2	46	1.0	-1	9	-1	0	-1	0	;
	3	47	1.0	-1	9	-1	0	-1	0	;
	4	48	1.0	-1	9	-1	0	-1	0	;
	9	5	3.0	-1	0	-1	0	-1	0	;
	10	6	3.0	-1	0	-1	0	-1	0	;
	11	7	3.0	-1	0	-1	0	-1	0	;
	12	8	3.0	-1	0	-1	0	-1	0	;
	13	5	2.5	-1	1	-1	0	-1	0	;
	14	6	2.5	-1	1	-1	0	-1	0	;
	15	7	2.5	-1	1	-1	0	-1	0	;
	16	8	2.5	-1	1	-1	0	-1	0	;
	17	5	2.0	-1	2	-1	0	-1	0	;
	18	6	2.0	-1	2	-1	0	-1	0	;
	19	7	2.0	-1	2	-1	0	-1	0	;
	20	8	2.0	-1	2	-1	0	-1	0	;
	21	5	1.5	-1	3	-1	0	-1	0	;
	22	6	1.5	-1	3	-1	0	-1	0	;
	23	7	1.5	-1	3	-1	0	-1	0	;
	24	8	1.5	-1	3	-1	0	-1	0	;
	25	5	1.0	-1	4	-1	0	-1	0	;
	26	6	1.0	-1	4	-1	0	-1	0	;
	27	7	1.0	-1	4	-1	0	-1	0	;
	28	8	1.0	-1	4	-1	0	-1	0	;
	29	5	0.5	-1	5	-1	0	-1	0	;
	30	6	0.5	-1	5	-1	0	-1	0	;
	31	7	0.5	-1	5	-1	0	-1	0	;
	32	8	0.5	-1	5	-1	0	-1	0	;
	33	5	0.0	-1	6	-1	0	-1	0	;
	34	6	0.0	-1	6	-1	0	-1	0	;
	35	7	0.0	-1	6	-1	0	-1	0	;
	36	8	0.0	-1	6	-1	0	-1	0	;
	37	5	1.0	-1	7	-1	0	-1	0	;
	38	6	1.0	-1	7	-1	0	-1	0	;
	39	7	1.0	-1	7	-1	0	-1	0	;
	40	8	1.0	-1	7	-1	0	-1	0	;
	41	5	2.0	-1	8	-1	0	-1	0	;
	42	6	2.0	-1	8	-1	0	-1	0	;
	43	7	2.0	-1	8	-1	0	-1	0	;
	44	8	2.0	-1	8	-1	0	-1	0	;
	45	5	3.0	-1	9	-1	0	-1	0	;
	46	6	3.0	-1	9	-1	0	-1	0	;
	47	7	3.0	-1	9	-1	0	-1	0	;
	48	8	3.0	-1	9	-1	0	-1	0	;
	9	53	1.0	-1	0	-1	-1	2	1	;
	10	54	1.0	-1	0	-1	-1	2	1	;
	11	55	1.0	-1	0	-1	-1	2	1	;
	12	56	1.0	-1	0	-1	-1	2	1	;
	13	57	1.0	-1	1	-1	-1	2	1	;
	14	58	1.0	-1	1	-1	-1	2	1	;
	15	59	1.0	-1	1	-1	-1	2	1	;
	16	60	1.0	-1	1	-1	-1	2	1	;
	17	61	1.0	-1	2	-1	-1	2	1	;
	18	62	1.0	-1	2	-1	-1	2	1	;
	19	63	1.0	-1	2	-1	-1	2	1	;
	20	64	1.0	-1	2	-1	-1	2	1	;
	21	65	1.0	-1	3	-1	-1	2	1	;
	22	66	1.0	-1	3	-1	-1	2	1	;
	23	67	1.0	-1	3	-1	-1	2	1	;
	24	68	1.0	-1	3	-1	-1	2	1	;
	25	69	1.0	-1	4	-1	-1	2	1	;
	26	70	1.0	-1	4	-1	-1	2	1	;
	27	71	1.0	-1	4	-1	-1	2	1	;
	28	72	1.0	-1	4	-1	-1	2	1	;
	29	73	1.0	-1	5	-1	-1	2	1	;
	30	74	1.0	-1	5	-1	-1	2	1	;
	31	75	1.0	-1	5	-1	-1	2	1	;
	32	76	1.0	-1	5	-1	-1	2	1	;
	33	77	1.0	-1	6	-1	-1	2	1	;
	34	78	1.0	-1	6	-1	-1	2	1	;
	35	79	1.0	-1	6	-1	-1	2	1	;
	36	80	1.0	-1	6	-1	-1	2	1	;
	37	81	1.0	-1	7	-1	-1	2	1	;
	38	82	1.0	-1	7	-1	-1	2	1	;
	39	83	1.0	-1	7	-1	-1	2	1	;
	40	84	1.0	-1	7	-1	-1	2	1	;
	41	85	1.0	-1	8	-1	-1	2	1	;
	42	86	1.0	-1	8	-1	-1	2	1	;
	43	87	1.0	-1	8	-1	-1	2	1	;
	44	88	1.0	-1	8	-1	-1	2	1	;
	49	13	1.0	-1	0	-1	-1	3	1	;
	50	14	1.0	-1	0	-1	-1	3	1	;
	51	15	1.0	-1	0	-1	-1	3	1	;
	52	16	1.0	-1	0	-1	-1	3	1	;
	53	17	1.0	-1	1	-1	-1	3	1	;
	54	18	1.0	-1	1	-1	-1	3	1	;
	55	19	1.0	-1	1	-1	-1	3	1	;
	56	20	1.0	-1	1	-1	-1	3	1	;
	57	21	1.0	-1	2	-1	-1	3	1	;
	58	22	1.0	-1	2	-1	-1	3	1	;
	59	23	1.0	-1	2	-1	-1	3	1	;
	60	24	1.0	-1	2	-1	-1	3	1	;
	61	25	1.0	-1	3	-1	-1	3	1	;
	62	26	1.0	-1	3	-1	-1	3	1	;
	63	27	1.0	-1	3	-1	-1	3	1	;
	64	28	1.0	-1	3	-1	-1	3	1	;
	65	29	1.0	-1	4	-1	-1	3	1	;
	66	30	1.0	-1	4	-1	-1	3	1	;
	67	31	1.0	-1	4	-1	-1	3	1	;
	68	32	1.0	-1	4	-1	-1	3	1	;
	69	33	1.0	-1	5	-1	-1	3	1	;
	70	34	1.0	-1	5	-1	-1	3	1	;
	71	35	1.0	-1	5	-1	-1	3	1	;
	72	36	1.0	-1	5	-1	-1	3	1	;
	73	37	1.0	-1	6	-1	-1	3	1	;
	74	38	1.0	-1	6	-1	-1	3	1	;
	75	39	1.0	-1	6	-1	-1	3	1	;
	76	40	1.0	-1	6	-1	-1	3	1	;
	77	41	1.0	-1	7	-1	-1	3	1	;
	78	42	1.0	-1	7	-1	-1	3	1	;
	79	43	1.0	-1	7	-1	-1	3	1	;
	80	44	1.0	-1	7	-1	-1	3	1	;
	81	45	1.0	-1	8	-1	-1	3	1	;
	82	46	1.0	-1	8	-1	-1	3	1	;
	83	47	1.0	-1	8	-1	-1	3	1	;
	84	48	1.0	-1	8	-1	-1	3	1	;