<NUMBER OF ZONES> 8
<NUMBER OF NODES> 16
<FIRST THRU NODE> 1
<NUMBER OF LINKS> 15
<ORIGINAL HEADER> 
<END OF METADATA>


~	init_node	term_node	capacity	free_flow_time	original_link	time	;
	1	6	4.5	1.5	0	0	;
	1	7	3.0	3.0	1	0	;
	2	7	2.25	1.0	2	0	;
	2	8	2.25	5.0	3	0	;
	3	8	5.25	3.5	4	0	;
	5	10	4.5	1.5	0	1	;
	5	11	3.0	3.0	1	1	;
	6	11	2.25	1.0	2	1	;
	6	12	2.25	5.0	3	1	;
	7	12	5.25	3.5	4	1	;
	9	14	4.5	1.5	0	2	;
	9	15	3.0	3.0	1	2	;
	10	15	2.25	1.0	2	2	;
	10	16	2.25	5.0	3	2	;
	11	16	5.25	3.5	4	2	;