<NUMBER OF ZONES> 8
<NUMBER OF NODES> 80
<FIRST THRU NODE> 1
<NUMBER OF LINKS> 190
<ORIGINAL HEADER> 
<END OF METADATA>


~	init_node	term_node	capacity	free_flow_time	original_link	time	;
	1	6	60.0	1.5	0	0	;
	1	7	40.0	3.0	1	0	;
	2	7	30.0	1.0	2	0	;
	2	8	30.0	5.0	3	0	;
	3	8	70.0	3.5	4	0	;
	2	5	60.0	1.5	5	0	;
	3	5	40.0	3.0	6	0	;
	3	6	30.0	1.0	7	0	;
	4	6	30.0	5.0	8	0	;
	4	7	70.0	3.5	9	0	;
	5	10	60.0	1.5	0	1	;
	5	11	40.0	3.0	1	1	;
	6	11	30.0	1.0	2	1	;
	6	12	30.0	5.0	3	1	;
	7	12	70.0	3.5	4	1	;
	6	9	60.0	1.5	5	1	;
	7	9	40.0	3.0	6	1	;
	7	10	30.0	1.0	7	1	;
	8	10	30.0	5.0	8	1	;
	8	11	70.0	3.5	9	1	;
	9	14	60.0	1.5	0	2	;
	9	15	40.0	3.0	1	2	;
	10	15	30.0	1.0	2	2	;
	10	16	30.0	5.0	3	2	;
	11	16	70.0	3.5	4	2	;
	10	13	60.0	1.5	5	2	;
	11	13	40.0	3.0	6	2	;
	11	14	30.0	1.0	7	2	;
	12	14	30.0	5.0	8	2	;
	12	15	70.0	3.5	9	2	;
	13	18	60.0	1.5	0	3	;
	13	19	40.0	3.0	1	3	;
	14	19	30.0	1.0	2	3	;
	14	20	30.0	5.0	3	3	;
	15	20	70.0	3.5	4	3	;
	14	17	60.0	1.5	5	3	;
	15	17	40.0	3.0	6	3	;
	15	18	30.0	1.0	7	3	;
	16	18	30.0	5.0	8	3	;
	16	19	70.0	3.5	9	3	;
	17	22	60.0	1.5	0	4	;
	17	23	40.0	3.0	1	4	;
	18	23	30.0	1.0	2	4	;
	18	24	30.0	5.0	3	4	;
	19	24	70.0	3.5	4	4	;
	18	21	60.0	1.5	5	4	;
	19	21	40.0	3.0	6	4	;
	19	22	30.0	1.0	7	4	;
	20	22	30.0	5.0	8	4	;
	20	23	70.0	3.5	9	4	;
	21	26	60.0	1.5	0	5	;
	21	27	40.0	3.0	1	5	;
	22	27	30.0	1.0	2	5	;
	22	28	30.0	5.0	3	5	;
	23	28	70.0	3.5	4	5	;
	22	25	60.0	1.5	5	5	;
	23	25	40.0	3.0	6	5	;
	23	26	30.0	1.0	7	5	;
	24	26	30.0	5.0	8	5	;
	24	27	70.0	3.5	9	5	;
	25	30	60.0	1.5	0	6	;
	25	31	40.0	3.0	1	6	;
	26	31	30.0	1.0	2	6	;
	26	32	30.0	5.0	3	6	;
	27	32	70.0	3.5	4	6	;
	26	29	60.0	1.5	5	6	;
	27	29	40.0	3.0	6	6	;
	27	30	30.0	1.0	7	6	;
	28	30	30.0	5.0	8	6	;
	28	31	70.0	3.5	9	6	;
	29	34	60.0	1.5	0	7	;
	29	35	40.0	3.0	1	7	;
	30	35	30.0	1.0	2	7	;
	30	36	30.0	5.0	3	7	;
	31	36	70.0	3.5	4	7	;
	30	33	60.0	1.5	5	7	;
	31	33	40.0	3.0	6	7	;
	31	34	30.0	1.0	7	7	;
	32	34	30.0	5.0	8	7	;
	32	35	70.0	3.5	9	7	;
	33	38	60.0	1.5	0	8	;
	33	39	40.0	3.0	1	8	;
	34	39	30.0	1.0	2	8	;
	34	40	30.0	5.0	3	8	;
	35	40	70.0	3.5	4	8	;
	34	37	60.0	1.5	5	8	;
	35	37	40.0	3.0	6	8	;
	35	38	30.0	1.0	7	8	;
	36	38	30.0	5.0	8	8	;
	36	39	70.0	3.5	9	8	;
	37	42	60.0	1.5	0	9	;
	37	43	40.0	3.0	1	9	;
	38	43	30.0	1.0	2	9	;
	38	44	30.0	5.0	3	9	;
	39	44	70.0	3.5	4	9	;
	38	41	60.0	1.5	5	9	;
	39	41	40.0	3.0	6	9	;
	39	42	30.0	1.0	7	9	;
	40	42	30.0	5.0	8	9	;
	40	43	70.0	3.5	9	9	;
	41	46	60.0	1.5	0	10	;
	41	47	40.0	3.0	1	10	;
	42	47	30.0	1.0	2	10	;
	42	48	30.0	5.0	3	10	;
	43	48	70.0	3.5	4	10	;
	42	45	60.0	1.5	5	10	;
	43	45	40.0	3.0	6	10	;
	43	46	30.0	1.0	7	10	;
	44	46	30.0	5.0	8	10	;
	44	47	70.0	3.5	9	10	;
	45	50	60.0	1.5	0	11	;
	45	51	40.0	3.0	1	11	;
	46	51	30.0	1.0	2	11	;
	46	52	30.0	5.0	3	11	;
	47	52	70.0	3.5	4	11	;
	46	49	60.0	1.5	5	11	;
	47	49	40.0	3.0	6	11	;
	47	50	30.0	1.0	7	11	;
	48	50	30.0	5.0	8	11	;
	48	51	70.0	3.5	9	11	;
	49	54	60.0	1.5	0	12	;
	49	55	40.0	3.0	1	12	;
	50	55	30.0	1.0	2	12	;
	50	56	30.0	5.0	3	12	;
	51	56	70.0	3.5	4	12	;
	50	53	60.0	1.5	5	12	;
	51	53	40.0	3.0	6	12	;
	51	54	30.0	1.0	7	12	;
	52	54	30.0	5.0	8	12	;
	52	55	70.0	3.5	9	12	;
	53	58	60.0	1.5	0	13	;
	53	59	40.0	3.0	1	13	;
	54	59	30.0	1.0	2	13	;
	54	60	30.0	5.0	3	13	;
	55	60	70.0	3.5	4	13	;
	54	57	60.0	1.5	5	13	;
	55	57	40.0	3.0	6	13	;
	55	58	30.0	1.0	7	13	;
	56	58	30.0	5.0	8	13	;
	56	59	70.0	3.5	9	13	;
	57	62	60.0	1.5	0	14	;
	57	63	40.0	3.0	1	14	;
	58	63	30.0	1.0	2	14	;
	58	64	30.0	5.0	3	14	;
	59	64	70.0	3.5	4	14	;
	58	61	60.0	1.5	5	14	;
	59	61	40.0	3.0	6	14	;
	59	62	30.0	1.0	7	14	;
	60	62	30.0	5.0	8	14	;
	60	63	70.0	3.5	9	14	;
	61	66	60.0	1.5	0	15	;
	61	67	40.0	3.0	1	15	;
	62	67	30.0	1.0	2	15	;
	62	68	30.0	5.0	3	15	;
	63	68	70.0	3.5	4	15	;
	62	65	60.0	1.5	5	15	;
	63	65	40.0	3.0	6	15	;
	63	66	30.0	1.0	7	15	;
	64	66	30.0	5.0	8	15	;
	64	67	70.0	3.5	9	15	;
	65	70	60.0	1.5	0	16	;
	65	71	40.0	3.0	1	16	;
	66	71	30.0	1.0	2	16	;
	66	72	30.0	5.0	3	16	;
	67	72	70.0	3.5	4	16	;
	66	69	60.0	1.5	5	16	;
	67	69	40.0	3.0	6	16	;
	67	70	30.0	1.0	7	16	;
	68	70	30.0	5.0	8	16	;
	68	71	70.0	3.5	9	16	;
	69	74	60.0	1.5	0	17	;
	69	75	40.0	3.0	1	17	;
	70	75	30.0	1.0	2	17	;
	70	76	30.0	5.0	3	17	;
	71	76	70.0	3.5	4	17	;
	70	73	60.0	1.5	5	17	;
	71	73	40.0	3.0	6	17	;
	71	74	30.0	1.0	7	17	;
	72	74	30.0	5.0	8	17	;
	72	75	70.0	3.5	9	17	;
	73	78	60.0	1.5	0	18	;
	73	79	40.0	3.0	1	18	;
	74	79	30.0	1.0	2	18	;
	74	80	30.0	5.0	3	18	;
	75	80	70.0	3.5	4	18	;
	74	77	60.0	1.5	5	18	;
	75	77	40.0	3.0	6	18	;
	75	78	30.0	1.0	7	18	;
	76	78	30.0	5.0	8	18	;
	76	79	70.0	3.5	9	18	;