<NUMBER OF ZONES> 8
<NUMBER OF NODES> 80
<FIRST THRU NODE> 1
<NUMBER OF LINKS> 76
<ORIGINAL HEADER> 
<END OF METADATA>


~	init_node	term_node	capacity	free_flow_time	original_link	time	;
	1	6	3147.0	5.0	0	0	;
	1	7	2956.0	5.0	1	0	;
	2	8	3575.0	5.0	2	0	;
	3	8	4042.0	5.0	3	0	;
	5	10	3147.0	5.0	0	1	;
	5	11	2956.0	5.0	1	1	;
	6	12	3575.0	5.0	2	1	;
	7	12	4042.0	5.0	3	1	;
	9	14	3147.0	5.0	0	2	;
	9	15	2956.0	5.0	1	2	;
	10	16	3575.0	5.0	2	2	;
	11	16	4042.0	5.0	3	2	;
	13	18	3147.0	5.0	0	3	;
	13	19	2956.0	5.0	1	3	;
	14	20	3575.0	5.0	2	3	;
	15	20	4042.0	5.0	3	3	;
	17	22	3147.0	5.0	0	4	;
	17	23	2956.0	5.0	1	4	;
	18	24	3575.0	5.0	2	4	;
	19	24	4042.0	5.0	3	4	;
	21	26	3147.0	5.0	0	5	;
	21	27	2956.0	5.0	1	5	;
	22	28	3575.0	5.0	2	5	;
	23	28	4042.0	5.0	3	5	;
	25	30	3147.0	5.0	0	6	;
	25	31	2956.0	5.0	1	6	;
	26	32	3575.0	5.0	2	6	;
	27	32	4042.0	5.0	3	6	;
	29	34	3147.0	5.0	0	7	;
	29	35	2956.0	5.0	1	7	;
	30	36	3575.0	5.0	2	7	;
	31	36	4042.0	5.0	3	7	;
	33	38	3147.0	5.0	0	8	;
	33	39	2956.0	5.0	1	8	;
	34	40	3575.0	5.0	2	8	;
	35	40	4042.0	5.0	3	8	;
	37	42	3147.0	5.0	0	9	;
	37	43	2956.0	5.0	1	9	;
	38	44	3575.0	5.0	2	9	;
	39	44	4042.0	5.0	3	9	;
	41	46	3147.0	5.0	0	10	;
	41	47	2956.0	5.0	1	10	;
	42	48	3575.0	5.0	2	10	;
	43	48	4042.0	5.0	3	10	;
	45	50	3147.0	5.0	0	11	;
	45	51	2956.0	5.0	1	11	;
	46	52	3575.0	5.0	2	11	;
	47	52	4042.0	5.0	3	11	;
	49	54	3147.0	5.0	0	12	;
	49	55	2956.0	5.0	1	12	;
	50	56	3575.0	5.0	2	12	;
	51	56	4042.0	5.0	3	12	;
	53	58	3147.0	5.0	0	13	;
	53	59	2956.0	5.0	1	13	;
	54	60	3575.0	5.0	2	13	;
	55	60	4042.0	5.0	3	13	;
	57	62	3147.0	5.0	0	14	;
	57	63	2956.0	5.0	1	14	;
	58	64	3575.0	5.0	2	14	;
	59	64	4042.0	5.0	3	14	;
	61	66	3147.0	5.0	0	15	;
	61	67	2956.0	5.0	1	15	;
	62	68	3575.0	5.0	2	15	;
	63	68	4042.0	5.0	3	15	;
	65	70	3147.0	5.0	0	16	;
	65	71	2956.0	5.0	1	16	;
	66	72	3575.0	5.0	2	16	;
	67	72	4042.0	5.0	3	16	;
	69	74	3147.0	5.0	0	17	;
	69	75	2956.0	5.0	1	17	;
	70	76	3575.0	5.0	2	17	;
	71	76	4042.0	5.0	3	17	;
	73	78	3147.0	5.0	0	18	;
	73	79	2956.0	5.0	1	18	;
	74	80	3575.0	5.0	2	18	;
	75	80	4042.0	5.0	3	18	;