<NUMBER OF ZONES> 4
<TOTAL OD FLOW> 10000.0
<END OF METADATA>



Origin  1
	3 :	1687.0;	4 :	1715.0;

Origin  2
	3 :	3454.0;	4 :	3144.0;