<NUMBER OF ZONES> 16
<TOTAL OD FLOW> 10000
<END OF METADATA>



Origin  1
	17 :	20.0;	18 :	15.0;	19 :	73.0;	20 :	16.0;	21 :	45.0;
	22 :	66.0;	23 :	2.0;	24 :	70.0;	25 :	63.0;	26 :	63.0;
	27 :	20.0;	28 :	70.0;	29 :	33.0;	30 :	20.0;	31 :	12.0;
	32 :	12.0;

Origin  2
	17 :	54.0;	18 :	74.0;	19 :	49.0;	20 :	12.0;	21 :	70.0;
	22 :	5.0;	23 :	73.0;	24 :	27.0;	25 :	61.0;	26 :	42.0;
	27 :	10.0;	28 :	34.0;	29 :	15.0;	30 :	28.0;	31 :	2.0;
	32 :	24.0;

Origin  3
	17 :	57.0;	18 :	61.0;	19 :	54.0;	20 :	68.0;	21 :	75.0;
	22 :	10.0;	23 :	47.0;	24 :	29.0;	25 :	32.0;	26 :	20.0;
	27 :	76.0;	28 :	60.0;	29 :	24.0;	30 :	58.0;	31 :	52.0;
	32 :	70.0;

Origin  4
	17 :	17.0;	18 :	75.0;	19 :	66.0;	20 :	67.0;	21 :	11.0;
	22 :	21.0;	23 :	57.0;	24 :	21.0;	25 :	60.0;	26 :	11.0;
	27 :	25.0;	28 :	41.0;	29 :	26.0;	30 :	15.0;	31 :	38.0;
	32 :	25.0;

Origin  5
	17 :	61.0;	18 :	49.0;	19 :	62.0;	20 :	50.0;	21 :	49.0;
	22 :	17.0;	23 :	17.0;	24 :	70.0;	25 :	75.0;	26 :	67.0;
	27 :	29.0;	28 :	27.0;	29 :	15.0;	30 :	24.0;	31 :	23.0;
	32 :	25.0;

Origin  6
	17 :	70.0;	18 :	45.0;	19 :	45.0;	20 :	12.0;	21 :	72.0;
	22 :	69.0;	23 :	59.0;	24 :	55.0;	25 :	39.0;	26 :	34.0;
	27 :	17.0;	28 :	37.0;	29 :	10.0;	30 :	21.0;	31 :	5.0;
	32 :	55.0;

Origin  7
	17 :	17.0;	18 :	19.0;	19 :	59.0;	20 :	63.0;	21 :	30.0;
	22 :	1.0;	23 :	62.0;	24 :	46.0;	25 :	55.0;	26 :	59.0;
	27 :	4.0;	28 :	57.0;	29 :	23.0;	30 :	8.0;	31 :	67.0;
	32 :	30.0;

Origin  8
	17 :	59.0;	18 :	9.0;	19 :	44.0;	20 :	3.0;	21 :	70.0;
	22 :	63.0;	23 :	33.0;	24 :	28.0;	25 :	40.0;	26 :	59.0;
	27 :	14.0;	28 :	17.0;	29 :	65.0;	30 :	21.0;	31 :	69.0;
	32 :	66.0;

Origin  9
	17 :	76.0;	18 :	38.0;	19 :	31.0;	20 :	60.0;	21 :	28.0;
	22 :	32.0;	23 :	31.0;	24 :	19.0;	25 :	35.0;	26 :	42.0;
	27 :	46.0;	28 :	30.0;	29 :	58.0;	30 :	9.0;	31 :	71.0;
	32 :	47.0;

Origin  10
	17 :	52.0;	18 :	55.0;	19 :	34.0;	20 :	32.0;	21 :	61.0;
	22 :	77.0;	23 :	28.0;	24 :	32.0;	25 :	0.0;	26 :	43.0;
	27 :	67.0;	28 :	50.0;	29 :	49.0;	30 :	56.0;	31 :	31.0;
	32 :	29.0;

Origin  11
	17 :	69.0;	18 :	64.0;	19 :	66.0;	20 :	23.0;	21 :	71.0;
	22 :	68.0;	23 :	4.0;	24 :	41.0;	25 :	57.0;	26 :	38.0;
	27 :	74.0;	28 :	44.0;	29 :	6.0;	30 :	16.0;	31 :	26.0;
	32 :	42.0;

Origin  12
	17 :	1.0;	18 :	28.0;	19 :	73.0;	20 :	50.0;	21 :	49.0;
	22 :	32.0;	23 :	31.0;	24 :	36.0;	25 :	48.0;	26 :	18.0;
	27 :	18.0;	28 :	40.0;	29 :	36.0;	30 :	14.0;	31 :	21.0;
	32 :	69.0;

Origin  13
	17 :	5.0;	18 :	5.0;	19 :	38.0;	20 :	63.0;	21 :	47.0;
	22 :	39.0;	23 :	9.0;	24 :	10.0;	25 :	51.0;	26 :	58.0;
	27 :	45.0;	28 :	39.0;	29 :	62.0;	30 :	66.0;	31 :	55.0;
	32 :	54.0;

Origin  14
	17 :	14.0;	18 :	16.0;	19 :	9.0;	20 :	45.0;	21 :	69.0;
	22 :	49.0;	23 :	10.0;	24 :	16.0;	25 :	23.0;	26 :	40.0;
	27 :	58.0;	28 :	16.0;	29 :	17.0;	30 :	34.0;	31 :	73.0;
	32 :	9.0;

Origin  15
	17 :	66.0;	18 :	6.0;	19 :	28.0;	20 :	17.0;	21 :	9.0;
	22 :	22.0;	23 :	55.0;	24 :	62.0;	25 :	38.0;	26 :	16.0;
	27 :	33.0;	28 :	45.0;	29 :	72.0;	30 :	75.0;	31 :	73.0;
	32 :	57.0;

Origin  16
	17 :	53.0;	18 :	3.0;	19 :	1.0;	20 :	12.0;	21 :	15.0;
	22 :	38.0;	23 :	3.0;	24 :	14.0;	25 :	18.0;	26 :	68.0;
	27 :	54.0;	28 :	4.0;	29 :	70.0;	30 :	18.0;	31 :	6.0;
	32 :	69.0;