<NUMBER OF ZONES> 16
<NUMBER OF NODES> 16
<FIRST THRU NODE> 1
<NUMBER OF LINKS> 24
<ORIGINAL HEADER> 
<END OF METADATA>


~	init_node	term_node	capacity	free_flow_time	;
	1	2	1142.0	5.0	;
	1	5	3429.0	5.0	;
	2	3	1824.0	5.0	;
	2	6	4661.0	5.0	;
	3	4	4295.0	5.0	;
	3	7	2756.0	5.0	;
	4	8	3990.0	5.0	;
	5	6	4533.0	5.0	;
	5	9	1849.0	5.0	;
	6	7	1366.0	5.0	;
	6	10	4185.0	5.0	;
	7	8	3779.0	5.0	;
	7	11	1785.0	5.0	;
	8	12	3762.0	5.0	;
	9	10	3515.0	5.0	;
	9	13	2367.0	5.0	;
	10	11	3347.0	5.0	;
	10	14	4190.0	5.0	;
	11	12	2459.0	5.0	;
	11	15	2607.0	5.0	;
	12	16	2427.0	5.0	;
	13	14	3356.0	5.0	;
	14	15	1172.0	5.0	;
	15	16	3186.0	5.0	;