<NUMBER OF ZONES> 26
<NUMBER OF NODES> 1946
<FIRST THRU NODE> 1
<NUMBER OF LINKS> 7917
<ORIGINAL HEADER> 
<END OF METADATA>


~	init_node	term_node	free_flow_time	original_link	time	original_TS_link	user_state	link_type	price_index	;
	27	51	1.0	-1	0	0	0	1	0	;
	28	52	1.0	-1	0	1	0	1	0	;
	29	53	1.0	-1	0	2	0	1	0	;
	30	54	1.0	-1	0	3	0	1	0	;
	31	55	1.0	-1	0	4	0	1	0	;
	32	56	1.0	-1	0	5	0	1	0	;
	33	57	1.0	-1	0	6	0	1	0	;
	34	58	1.0	-1	0	7	0	1	0	;
	35	59	1.0	-1	0	8	0	1	0	;
	36	60	1.0	-1	0	9	0	1	0	;
	37	61	1.0	-1	0	10	0	1	0	;
	38	62	1.0	-1	0	11	0	1	0	;
	39	63	1.0	-1	0	12	0	1	0	;
	40	64	1.0	-1	0	13	0	1	0	;
	41	65	1.0	-1	0	14	0	1	0	;
	42	66	1.0	-1	0	15	0	1	0	;
	43	67	1.0	-1	0	16	0	1	0	;
	44	68	1.0	-1	0	17	0	1	0	;
	45	69	1.0	-1	0	18	0	1	0	;
	46	70	1.0	-1	0	19	0	1	0	;
	47	71	1.0	-1	0	20	0	1	0	;
	48	72	1.0	-1	0	21	0	1	0	;
	49	73	1.0	-1	0	22	0	1	0	;
	50	74	1.0	-1	0	23	0	1	0	;
	51	75	1.0	-1	1	24	0	1	0	;
	52	76	1.0	-1	1	25	0	1	0	;
	53	77	1.0	-1	1	26	0	1	0	;
	54	78	1.0	-1	1	27	0	1	0	;
	55	79	1.0	-1	1	28	0	1	0	;
	56	80	1.0	-1	1	29	0	1	0	;
	57	81	1.0	-1	1	30	0	1	0	;
	58	82	1.0	-1	1	31	0	1	0	;
	59	83	1.0	-1	1	32	0	1	0	;
	60	84	1.0	-1	1	33	0	1	0	;
	61	85	1.0	-1	1	34	0	1	0	;
	62	86	1.0	-1	1	35	0	1	0	;
	63	87	1.0	-1	1	36	0	1	0	;
	64	88	1.0	-1	1	37	0	1	0	;
	65	89	1.0	-1	1	38	0	1	0	;
	66	90	1.0	-1	1	39	0	1	0	;
	67	91	1.0	-1	1	40	0	1	0	;
	68	92	1.0	-1	1	41	0	1	0	;
	69	93	1.0	-1	1	42	0	1	0	;
	70	94	1.0	-1	1	43	0	1	0	;
	71	95	1.0	-1	1	44	0	1	0	;
	72	96	1.0	-1	1	45	0	1	0	;
	73	97	1.0	-1	1	46	0	1	0	;
	74	98	1.0	-1	1	47	0	1	0	;
	75	99	1.0	-1	2	48	0	1	0	;
	76	100	1.0	-1	2	49	0	1	0	;
	77	101	1.0	-1	2	50	0	1	0	;
	78	102	1.0	-1	2	51	0	1	0	;
	79	103	1.0	-1	2	52	0	1	0	;
	80	104	1.0	-1	2	53	0	1	0	;
	81	105	1.0	-1	2	54	0	1	0	;
	82	106	1.0	-1	2	55	0	1	0	;
	83	107	1.0	-1	2	56	0	1	0	;
	84	108	1.0	-1	2	57	0	1	0	;
	85	109	1.0	-1	2	58	0	1	0	;
	86	110	1.0	-1	2	59	0	1	0	;
	87	111	1.0	-1	2	60	0	1	0	;
	88	112	1.0	-1	2	61	0	1	0	;
	89	113	1.0	-1	2	62	0	1	0	;
	90	114	1.0	-1	2	63	0	1	0	;
	91	115	1.0	-1	2	64	0	1	0	;
	92	116	1.0	-1	2	65	0	1	0	;
	93	117	1.0	-1	2	66	0	1	0	;
	94	118	1.0	-1	2	67	0	1	0	;
	95	119	1.0	-1	2	68	0	1	0	;
	96	120	1.0	-1	2	69	0	1	0	;
	97	121	1.0	-1	2	70	0	1	0	;
	98	122	1.0	-1	2	71	0	1	0	;
	99	123	1.0	-1	3	72	0	1	0	;
	100	124	1.0	-1	3	73	0	1	0	;
	101	125	1.0	-1	3	74	0	1	0	;
	102	126	1.0	-1	3	75	0	1	0	;
	103	127	1.0	-1	3	76	0	1	0	;
	104	128	1.0	-1	3	77	0	1	0	;
	105	129	1.0	-1	3	78	0	1	0	;
	106	130	1.0	-1	3	79	0	1	0	;
	107	131	1.0	-1	3	80	0	1	0	;
	108	132	1.0	-1	3	81	0	1	0	;
	109	133	1.0	-1	3	82	0	1	0	;
	110	134	1.0	-1	3	83	0	1	0	;
	111	135	1.0	-1	3	84	0	1	0	;
	112	136	1.0	-1	3	85	0	1	0	;
	113	137	1.0	-1	3	86	0	1	0	;
	114	138	1.0	-1	3	87	0	1	0	;
	115	139	1.0	-1	3	88	0	1	0	;
	116	140	1.0	-1	3	89	0	1	0	;
	117	141	1.0	-1	3	90	0	1	0	;
	118	142	1.0	-1	3	91	0	1	0	;
	119	143	1.0	-1	3	92	0	1	0	;
	120	144	1.0	-1	3	93	0	1	0	;
	121	145	1.0	-1	3	94	0	1	0	;
	122	146	1.0	-1	3	95	0	1	0	;
	123	147	1.0	-1	4	96	0	1	0	;
	124	148	1.0	-1	4	97	0	1	0	;
	125	149	1.0	-1	4	98	0	1	0	;
	126	150	1.0	-1	4	99	0	1	0	;
	127	151	1.0	-1	4	100	0	1	0	;
	128	152	1.0	-1	4	101	0	1	0	;
	129	153	1.0	-1	4	102	0	1	0	;
	130	154	1.0	-1	4	103	0	1	0	;
	131	155	1.0	-1	4	104	0	1	0	;
	132	156	1.0	-1	4	105	0	1	0	;
	133	157	1.0	-1	4	106	0	1	0	;
	134	158	1.0	-1	4	107	0	1	0	;
	135	159	1.0	-1	4	108	0	1	0	;
	136	160	1.0	-1	4	109	0	1	0	;
	137	161	1.0	-1	4	110	0	1	0	;
	138	162	1.0	-1	4	111	0	1	0	;
	139	163	1.0	-1	4	112	0	1	0	;
	140	164	1.0	-1	4	113	0	1	0	;
	141	165	1.0	-1	4	114	0	1	0	;
	142	166	1.0	-1	4	115	0	1	0	;
	143	167	1.0	-1	4	116	0	1	0	;
	144	168	1.0	-1	4	117	0	1	0	;
	145	169	1.0	-1	4	118	0	1	0	;
	146	170	1.0	-1	4	119	0	1	0	;
	147	171	1.0	-1	5	120	0	1	0	;
	148	172	1.0	-1	5	121	0	1	0	;
	149	173	1.0	-1	5	122	0	1	0	;
	150	174	1.0	-1	5	123	0	1	0	;
	151	175	1.0	-1	5	124	0	1	0	;
	152	176	1.0	-1	5	125	0	1	0	;
	153	177	1.0	-1	5	126	0	1	0	;
	154	178	1.0	-1	5	127	0	1	0	;
	155	179	1.0	-1	5	128	0	1	0	;
	156	180	1.0	-1	5	129	0	1	0	;
	157	181	1.0	-1	5	130	0	1	0	;
	158	182	1.0	-1	5	131	0	1	0	;
	159	183	1.0	-1	5	132	0	1	0	;
	160	184	1.0	-1	5	133	0	1	0	;
	161	185	1.0	-1	5	134	0	1	0	;
	162	186	1.0	-1	5	135	0	1	0	;
	163	187	1.0	-1	5	136	0	1	0	;
	164	188	1.0	-1	5	137	0	1	0	;
	165	189	1.0	-1	5	138	0	1	0	;
	166	190	1.0	-1	5	139	0	1	0	;
	167	191	1.0	-1	5	140	0	1	0	;
	168	192	1.0	-1	5	141	0	1	0	;
	169	193	1.0	-1	5	142	0	1	0	;
	170	194	1.0	-1	5	143	0	1	0	;
	171	195	1.0	-1	6	144	0	1	0	;
	172	196	1.0	-1	6	145	0	1	0	;
	173	197	1.0	-1	6	146	0	1	0	;
	174	198	1.0	-1	6	147	0	1	0	;
	175	199	1.0	-1	6	148	0	1	0	;
	176	200	1.0	-1	6	149	0	1	0	;
	177	201	1.0	-1	6	150	0	1	0	;
	178	202	1.0	-1	6	151	0	1	0	;
	179	203	1.0	-1	6	152	0	1	0	;
	180	204	1.0	-1	6	153	0	1	0	;
	181	205	1.0	-1	6	154	0	1	0	;
	182	206	1.0	-1	6	155	0	1	0	;
	183	207	1.0	-1	6	156	0	1	0	;
	184	208	1.0	-1	6	157	0	1	0	;
	185	209	1.0	-1	6	158	0	1	0	;
	186	210	1.0	-1	6	159	0	1	0	;
	187	211	1.0	-1	6	160	0	1	0	;
	188	212	1.0	-1	6	161	0	1	0	;
	189	213	1.0	-1	6	162	0	1	0	;
	190	214	1.0	-1	6	163	0	1	0	;
	191	215	1.0	-1	6	164	0	1	0	;
	192	216	1.0	-1	6	165	0	1	0	;
	193	217	1.0	-1	6	166	0	1	0	;
	194	218	1.0	-1	6	167	0	1	0	;
	195	219	1.0	-1	7	168	0	1	0	;
	196	220	1.0	-1	7	169	0	1	0	;
	197	221	1.0	-1	7	170	0	1	0	;
	198	222	1.0	-1	7	171	0	1	0	;
	199	223	1.0	-1	7	172	0	1	0	;
	200	224	1.0	-1	7	173	0	1	0	;
	201	225	1.0	-1	7	174	0	1	0	;
	202	226	1.0	-1	7	175	0	1	0	;
	203	227	1.0	-1	7	176	0	1	0	;
	204	228	1.0	-1	7	177	0	1	0	;
	205	229	1.0	-1	7	178	0	1	0	;
	206	230	1.0	-1	7	179	0	1	0	;
	207	231	1.0	-1	7	180	0	1	0	;
	208	232	1.0	-1	7	181	0	1	0	;
	209	233	1.0	-1	7	182	0	1	0	;
	210	234	1.0	-1	7	183	0	1	0	;
	211	235	1.0	-1	7	184	0	1	0	;
	212	236	1.0	-1	7	185	0	1	0	;
	213	237	1.0	-1	7	186	0	1	0	;
	214	238	1.0	-1	7	187	0	1	0	;
	215	239	1.0	-1	7	188	0	1	0	;
	216	240	1.0	-1	7	189	0	1	0	;
	217	241	1.0	-1	7	190	0	1	0	;
	218	242	1.0	-1	7	191	0	1	0	;
	219	243	1.0	-1	8	192	0	1	0	;
	220	244	1.0	-1	8	193	0	1	0	;
	221	245	1.0	-1	8	194	0	1	0	;
	222	246	1.0	-1	8	195	0	1	0	;
	223	247	1.0	-1	8	196	0	1	0	;
	224	248	1.0	-1	8	197	0	1	0	;
	225	249	1.0	-1	8	198	0	1	0	;
	226	250	1.0	-1	8	199	0	1	0	;
	227	251	1.0	-1	8	200	0	1	0	;
	228	252	1.0	-1	8	201	0	1	0	;
	229	253	1.0	-1	8	202	0	1	0	;
	230	254	1.0	-1	8	203	0	1	0	;
	231	255	1.0	-1	8	204	0	1	0	;
	232	256	1.0	-1	8	205	0	1	0	;
	233	257	1.0	-1	8	206	0	1	0	;
	234	258	1.0	-1	8	207	0	1	0	;
	235	259	1.0	-1	8	208	0	1	0	;
	236	260	1.0	-1	8	209	0	1	0	;
	237	261	1.0	-1	8	210	0	1	0	;
	238	262	1.0	-1	8	211	0	1	0	;
	239	263	1.0	-1	8	212	0	1	0	;
	240	264	1.0	-1	8	213	0	1	0	;
	241	265	1.0	-1	8	214	0	1	0	;
	242	266	1.0	-1	8	215	0	1	0	;
	243	267	1.0	-1	9	216	0	1	0	;
	244	268	1.0	-1	9	217	0	1	0	;
	245	269	1.0	-1	9	218	0	1	0	;
	246	270	1.0	-1	9	219	0	1	0	;
	247	271	1.0	-1	9	220	0	1	0	;
	248	272	1.0	-1	9	221	0	1	0	;
	249	273	1.0	-1	9	222	0	1	0	;
	250	274	1.0	-1	9	223	0	1	0	;
	251	275	1.0	-1	9	224	0	1	0	;
	252	276	1.0	-1	9	225	0	1	0	;
	253	277	1.0	-1	9	226	0	1	0	;
	254	278	1.0	-1	9	227	0	1	0	;
	255	279	1.0	-1	9	228	0	1	0	;
	256	280	1.0	-1	9	229	0	1	0	;
	257	281	1.0	-1	9	230	0	1	0	;
	258	282	1.0	-1	9	231	0	1	0	;
	259	283	1.0	-1	9	232	0	1	0	;
	260	284	1.0	-1	9	233	0	1	0	;
	261	285	1.0	-1	9	234	0	1	0	;
	262	286	1.0	-1	9	235	0	1	0	;
	263	287	1.0	-1	9	236	0	1	0	;
	264	288	1.0	-1	9	237	0	1	0	;
	265	289	1.0	-1	9	238	0	1	0	;
	266	290	1.0	-1	9	239	0	1	0	;
	267	291	1.0	-1	10	240	0	1	0	;
	268	292	1.0	-1	10	241	0	1	0	;
	269	293	1.0	-1	10	242	0	1	0	;
	270	294	1.0	-1	10	243	0	1	0	;
	271	295	1.0	-1	10	244	0	1	0	;
	272	296	1.0	-1	10	245	0	1	0	;
	273	297	1.0	-1	10	246	0	1	0	;
	274	298	1.0	-1	10	247	0	1	0	;
	275	299	1.0	-1	10	248	0	1	0	;
	276	300	1.0	-1	10	249	0	1	0	;
	277	301	1.0	-1	10	250	0	1	0	;
	278	302	1.0	-1	10	251	0	1	0	;
	279	303	1.0	-1	10	252	0	1	0	;
	280	304	1.0	-1	10	253	0	1	0	;
	281	305	1.0	-1	10	254	0	1	0	;
	282	306	1.0	-1	10	255	0	1	0	;
	283	307	1.0	-1	10	256	0	1	0	;
	284	308	1.0	-1	10	257	0	1	0	;
	285	309	1.0	-1	10	258	0	1	0	;
	286	310	1.0	-1	10	259	0	1	0	;
	287	311	1.0	-1	10	260	0	1	0	;
	288	312	1.0	-1	10	261	0	1	0	;
	289	313	1.0	-1	10	262	0	1	0	;
	290	314	1.0	-1	10	263	0	1	0	;
	291	315	1.0	-1	11	264	0	1	0	;
	292	316	1.0	-1	11	265	0	1	0	;
	293	317	1.0	-1	11	266	0	1	0	;
	294	318	1.0	-1	11	267	0	1	0	;
	295	319	1.0	-1	11	268	0	1	0	;
	296	320	1.0	-1	11	269	0	1	0	;
	297	321	1.0	-1	11	270	0	1	0	;
	298	322	1.0	-1	11	271	0	1	0	;
	299	323	1.0	-1	11	272	0	1	0	;
	300	324	1.0	-1	11	273	0	1	0	;
	301	325	1.0	-1	11	274	0	1	0	;
	302	326	1.0	-1	11	275	0	1	0	;
	303	327	1.0	-1	11	276	0	1	0	;
	304	328	1.0	-1	11	277	0	1	0	;
	305	329	1.0	-1	11	278	0	1	0	;
	306	330	1.0	-1	11	279	0	1	0	;
	307	331	1.0	-1	11	280	0	1	0	;
	308	332	1.0	-1	11	281	0	1	0	;
	309	333	1.0	-1	11	282	0	1	0	;
	310	334	1.0	-1	11	283	0	1	0	;
	311	335	1.0	-1	11	284	0	1	0	;
	312	336	1.0	-1	11	285	0	1	0	;
	313	337	1.0	-1	11	286	0	1	0	;
	314	338	1.0	-1	11	287	0	1	0	;
	315	339	1.0	-1	12	288	0	1	0	;
	316	340	1.0	-1	12	289	0	1	0	;
	317	341	1.0	-1	12	290	0	1	0	;
	318	342	1.0	-1	12	291	0	1	0	;
	319	343	1.0	-1	12	292	0	1	0	;
	320	344	1.0	-1	12	293	0	1	0	;
	321	345	1.0	-1	12	294	0	1	0	;
	322	346	1.0	-1	12	295	0	1	0	;
	323	347	1.0	-1	12	296	0	1	0	;
	324	348	1.0	-1	12	297	0	1	0	;
	325	349	1.0	-1	12	298	0	1	0	;
	326	350	1.0	-1	12	299	0	1	0	;
	327	351	1.0	-1	12	300	0	1	0	;
	328	352	1.0	-1	12	301	0	1	0	;
	329	353	1.0	-1	12	302	0	1	0	;
	330	354	1.0	-1	12	303	0	1	0	;
	331	355	1.0	-1	12	304	0	1	0	;
	332	356	1.0	-1	12	305	0	1	0	;
	333	357	1.0	-1	12	306	0	1	0	;
	334	358	1.0	-1	12	307	0	1	0	;
	335	359	1.0	-1	12	308	0	1	0	;
	336	360	1.0	-1	12	309	0	1	0	;
	337	361	1.0	-1	12	310	0	1	0	;
	338	362	1.0	-1	12	311	0	1	0	;
	339	363	1.0	-1	13	312	0	1	0	;
	340	364	1.0	-1	13	313	0	1	0	;
	341	365	1.0	-1	13	314	0	1	0	;
	342	366	1.0	-1	13	315	0	1	0	;
	343	367	1.0	-1	13	316	0	1	0	;
	344	368	1.0	-1	13	317	0	1	0	;
	345	369	1.0	-1	13	318	0	1	0	;
	346	370	1.0	-1	13	319	0	1	0	;
	347	371	1.0	-1	13	320	0	1	0	;
	348	372	1.0	-1	13	321	0	1	0	;
	349	373	1.0	-1	13	322	0	1	0	;
	350	374	1.0	-1	13	323	0	1	0	;
	351	375	1.0	-1	13	324	0	1	0	;
	352	376	1.0	-1	13	325	0	1	0	;
	353	377	1.0	-1	13	326	0	1	0	;
	354	378	1.0	-1	13	327	0	1	0	;
	355	379	1.0	-1	13	328	0	1	0	;
	356	380	1.0	-1	13	329	0	1	0	;
	357	381	1.0	-1	13	330	0	1	0	;
	358	382	1.0	-1	13	331	0	1	0	;
	359	383	1.0	-1	13	332	0	1	0	;
	360	384	1.0	-1	13	333	0	1	0	;
	361	385	1.0	-1	13	334	0	1	0	;
	362	386	1.0	-1	13	335	0	1	0	;
	363	387	1.0	-1	14	336	0	1	0	;
	364	388	1.0	-1	14	337	0	1	0	;
	365	389	1.0	-1	14	338	0	1	0	;
	366	390	1.0	-1	14	339	0	1	0	;
	367	391	1.0	-1	14	340	0	1	0	;
	368	392	1.0	-1	14	341	0	1	0	;
	369	393	1.0	-1	14	342	0	1	0	;
	370	394	1.0	-1	14	343	0	1	0	;
	371	395	1.0	-1	14	344	0	1	0	;
	372	396	1.0	-1	14	345	0	1	0	;
	373	397	1.0	-1	14	346	0	1	0	;
	374	398	1.0	-1	14	347	0	1	0	;
	375	399	1.0	-1	14	348	0	1	0	;
	376	400	1.0	-1	14	349	0	1	0	;
	377	401	1.0	-1	14	350	0	1	0	;
	378	402	1.0	-1	14	351	0	1	0	;
	379	403	1.0	-1	14	352	0	1	0	;
	380	404	1.0	-1	14	353	0	1	0	;
	381	405	1.0	-1	14	354	0	1	0	;
	382	406	1.0	-1	14	355	0	1	0	;
	383	407	1.0	-1	14	356	0	1	0	;
	384	408	1.0	-1	14	357	0	1	0	;
	385	409	1.0	-1	14	358	0	1	0	;
	386	410	1.0	-1	14	359	0	1	0	;
	387	411	1.0	-1	15	360	0	1	0	;
	388	412	1.0	-1	15	361	0	1	0	;
	389	413	1.0	-1	15	362	0	1	0	;
	390	414	1.0	-1	15	363	0	1	0	;
	391	415	1.0	-1	15	364	0	1	0	;
	392	416	1.0	-1	15	365	0	1	0	;
	393	417	1.0	-1	15	366	0	1	0	;
	394	418	1.0	-1	15	367	0	1	0	;
	395	419	1.0	-1	15	368	0	1	0	;
	396	420	1.0	-1	15	369	0	1	0	;
	397	421	1.0	-1	15	370	0	1	0	;
	398	422	1.0	-1	15	371	0	1	0	;
	399	423	1.0	-1	15	372	0	1	0	;
	400	424	1.0	-1	15	373	0	1	0	;
	401	425	1.0	-1	15	374	0	1	0	;
	402	426	1.0	-1	15	375	0	1	0	;
	403	427	1.0	-1	15	376	0	1	0	;
	404	428	1.0	-1	15	377	0	1	0	;
	405	429	1.0	-1	15	378	0	1	0	;
	406	430	1.0	-1	15	379	0	1	0	;
	407	431	1.0	-1	15	380	0	1	0	;
	408	432	1.0	-1	15	381	0	1	0	;
	409	433	1.0	-1	15	382	0	1	0	;
	410	434	1.0	-1	15	383	0	1	0	;
	411	435	1.0	-1	16	384	0	1	0	;
	412	436	1.0	-1	16	385	0	1	0	;
	413	437	1.0	-1	16	386	0	1	0	;
	414	438	1.0	-1	16	387	0	1	0	;
	415	439	1.0	-1	16	388	0	1	0	;
	416	440	1.0	-1	16	389	0	1	0	;
	417	441	1.0	-1	16	390	0	1	0	;
	418	442	1.0	-1	16	391	0	1	0	;
	419	443	1.0	-1	16	392	0	1	0	;
	420	444	1.0	-1	16	393	0	1	0	;
	421	445	1.0	-1	16	394	0	1	0	;
	422	446	1.0	-1	16	395	0	1	0	;
	423	447	1.0	-1	16	396	0	1	0	;
	424	448	1.0	-1	16	397	0	1	0	;
	425	449	1.0	-1	16	398	0	1	0	;
	426	450	1.0	-1	16	399	0	1	0	;
	427	451	1.0	-1	16	400	0	1	0	;
	428	452	1.0	-1	16	401	0	1	0	;
	429	453	1.0	-1	16	402	0	1	0	;
	430	454	1.0	-1	16	403	0	1	0	;
	431	455	1.0	-1	16	404	0	1	0	;
	432	456	1.0	-1	16	405	0	1	0	;
	433	457	1.0	-1	16	406	0	1	0	;
	434	458	1.0	-1	16	407	0	1	0	;
	435	459	1.0	-1	17	408	0	1	0	;
	436	460	1.0	-1	17	409	0	1	0	;
	437	461	1.0	-1	17	410	0	1	0	;
	438	462	1.0	-1	17	411	0	1	0	;
	439	463	1.0	-1	17	412	0	1	0	;
	440	464	1.0	-1	17	413	0	1	0	;
	441	465	1.0	-1	17	414	0	1	0	;
	442	466	1.0	-1	17	415	0	1	0	;
	443	467	1.0	-1	17	416	0	1	0	;
	444	468	1.0	-1	17	417	0	1	0	;
	445	469	1.0	-1	17	418	0	1	0	;
	446	470	1.0	-1	17	419	0	1	0	;
	447	471	1.0	-1	17	420	0	1	0	;
	448	472	1.0	-1	17	421	0	1	0	;
	449	473	1.0	-1	17	422	0	1	0	;
	450	474	1.0	-1	17	423	0	1	0	;
	451	475	1.0	-1	17	424	0	1	0	;
	452	476	1.0	-1	17	425	0	1	0	;
	453	477	1.0	-1	17	426	0	1	0	;
	454	478	1.0	-1	17	427	0	1	0	;
	455	479	1.0	-1	17	428	0	1	0	;
	456	480	1.0	-1	17	429	0	1	0	;
	457	481	1.0	-1	17	430	0	1	0	;
	458	482	1.0	-1	17	431	0	1	0	;
	459	483	1.0	-1	18	432	0	1	0	;
	460	484	1.0	-1	18	433	0	1	0	;
	461	485	1.0	-1	18	434	0	1	0	;
	462	486	1.0	-1	18	435	0	1	0	;
	463	487	1.0	-1	18	436	0	1	0	;
	464	488	1.0	-1	18	437	0	1	0	;
	465	489	1.0	-1	18	438	0	1	0	;
	466	490	1.0	-1	18	439	0	1	0	;
	467	491	1.0	-1	18	440	0	1	0	;
	468	492	1.0	-1	18	441	0	1	0	;
	469	493	1.0	-1	18	442	0	1	0	;
	470	494	1.0	-1	18	443	0	1	0	;
	471	495	1.0	-1	18	444	0	1	0	;
	472	496	1.0	-1	18	445	0	1	0	;
	473	497	1.0	-1	18	446	0	1	0	;
	474	498	1.0	-1	18	447	0	1	0	;
	475	499	1.0	-1	18	448	0	1	0	;
	476	500	1.0	-1	18	449	0	1	0	;
	477	501	1.0	-1	18	450	0	1	0	;
	478	502	1.0	-1	18	451	0	1	0	;
	479	503	1.0	-1	18	452	0	1	0	;
	480	504	1.0	-1	18	453	0	1	0	;
	481	505	1.0	-1	18	454	0	1	0	;
	482	506	1.0	-1	18	455	0	1	0	;
	483	507	1.0	-1	19	456	0	1	0	;
	484	508	1.0	-1	19	457	0	1	0	;
	485	509	1.0	-1	19	458	0	1	0	;
	486	510	1.0	-1	19	459	0	1	0	;
	487	511	1.0	-1	19	460	0	1	0	;
	488	512	1.0	-1	19	461	0	1	0	;
	489	513	1.0	-1	19	462	0	1	0	;
	490	514	1.0	-1	19	463	0	1	0	;
	491	515	1.0	-1	19	464	0	1	0	;
	492	516	1.0	-1	19	465	0	1	0	;
	493	517	1.0	-1	19	466	0	1	0	;
	494	518	1.0	-1	19	467	0	1	0	;
	495	519	1.0	-1	19	468	0	1	0	;
	496	520	1.0	-1	19	469	0	1	0	;
	497	521	1.0	-1	19	470	0	1	0	;
	498	522	1.0	-1	19	471	0	1	0	;
	499	523	1.0	-1	19	472	0	1	0	;
	500	524	1.0	-1	19	473	0	1	0	;
	501	525	1.0	-1	19	474	0	1	0	;
	502	526	1.0	-1	19	475	0	1	0	;
	503	527	1.0	-1	19	476	0	1	0	;
	504	528	1.0	-1	19	477	0	1	0	;
	505	529	1.0	-1	19	478	0	1	0	;
	506	530	1.0	-1	19	479	0	1	0	;
	507	531	1.0	-1	20	480	0	1	0	;
	508	532	1.0	-1	20	481	0	1	0	;
	509	533	1.0	-1	20	482	0	1	0	;
	510	534	1.0	-1	20	483	0	1	0	;
	511	535	1.0	-1	20	484	0	1	0	;
	512	536	1.0	-1	20	485	0	1	0	;
	513	537	1.0	-1	20	486	0	1	0	;
	514	538	1.0	-1	20	487	0	1	0	;
	515	539	1.0	-1	20	488	0	1	0	;
	516	540	1.0	-1	20	489	0	1	0	;
	517	541	1.0	-1	20	490	0	1	0	;
	518	542	1.0	-1	20	491	0	1	0	;
	519	543	1.0	-1	20	492	0	1	0	;
	520	544	1.0	-1	20	493	0	1	0	;
	521	545	1.0	-1	20	494	0	1	0	;
	522	546	1.0	-1	20	495	0	1	0	;
	523	547	1.0	-1	20	496	0	1	0	;
	524	548	1.0	-1	20	497	0	1	0	;
	525	549	1.0	-1	20	498	0	1	0	;
	526	550	1.0	-1	20	499	0	1	0	;
	527	551	1.0	-1	20	500	0	1	0	;
	528	552	1.0	-1	20	501	0	1	0	;
	529	553	1.0	-1	20	502	0	1	0	;
	530	554	1.0	-1	20	503	0	1	0	;
	531	555	1.0	-1	21	504	0	1	0	;
	532	556	1.0	-1	21	505	0	1	0	;
	533	557	1.0	-1	21	506	0	1	0	;
	534	558	1.0	-1	21	507	0	1	0	;
	535	559	1.0	-1	21	508	0	1	0	;
	536	560	1.0	-1	21	509	0	1	0	;
	537	561	1.0	-1	21	510	0	1	0	;
	538	562	1.0	-1	21	511	0	1	0	;
	539	563	1.0	-1	21	512	0	1	0	;
	540	564	1.0	-1	21	513	0	1	0	;
	541	565	1.0	-1	21	514	0	1	0	;
	542	566	1.0	-1	21	515	0	1	0	;
	543	567	1.0	-1	21	516	0	1	0	;
	544	568	1.0	-1	21	517	0	1	0	;
	545	569	1.0	-1	21	518	0	1	0	;
	546	570	1.0	-1	21	519	0	1	0	;
	547	571	1.0	-1	21	520	0	1	0	;
	548	572	1.0	-1	21	521	0	1	0	;
	549	573	1.0	-1	21	522	0	1	0	;
	550	574	1.0	-1	21	523	0	1	0	;
	551	575	1.0	-1	21	524	0	1	0	;
	552	576	1.0	-1	21	525	0	1	0	;
	553	577	1.0	-1	21	526	0	1	0	;
	554	578	1.0	-1	21	527	0	1	0	;
	555	579	1.0	-1	22	528	0	1	0	;
	556	580	1.0	-1	22	529	0	1	0	;
	557	581	1.0	-1	22	530	0	1	0	;
	558	582	1.0	-1	22	531	0	1	0	;
	559	583	1.0	-1	22	532	0	1	0	;
	560	584	1.0	-1	22	533	0	1	0	;
	561	585	1.0	-1	22	534	0	1	0	;
	562	586	1.0	-1	22	535	0	1	0	;
	563	587	1.0	-1	22	536	0	1	0	;
	564	588	1.0	-1	22	537	0	1	0	;
	565	589	1.0	-1	22	538	0	1	0	;
	566	590	1.0	-1	22	539	0	1	0	;
	567	591	1.0	-1	22	540	0	1	0	;
	568	592	1.0	-1	22	541	0	1	0	;
	569	593	1.0	-1	22	542	0	1	0	;
	570	594	1.0	-1	22	543	0	1	0	;
	571	595	1.0	-1	22	544	0	1	0	;
	572	596	1.0	-1	22	545	0	1	0	;
	573	597	1.0	-1	22	546	0	1	0	;
	574	598	1.0	-1	22	547	0	1	0	;
	575	599	1.0	-1	22	548	0	1	0	;
	576	600	1.0	-1	22	549	0	1	0	;
	577	601	1.0	-1	22	550	0	1	0	;
	578	602	1.0	-1	22	551	0	1	0	;
	579	603	1.0	-1	23	552	0	1	0	;
	580	604	1.0	-1	23	553	0	1	0	;
	581	605	1.0	-1	23	554	0	1	0	;
	582	606	1.0	-1	23	555	0	1	0	;
	583	607	1.0	-1	23	556	0	1	0	;
	584	608	1.0	-1	23	557	0	1	0	;
	585	609	1.0	-1	23	558	0	1	0	;
	586	610	1.0	-1	23	559	0	1	0	;
	587	611	1.0	-1	23	560	0	1	0	;
	588	612	1.0	-1	23	561	0	1	0	;
	589	613	1.0	-1	23	562	0	1	0	;
	590	614	1.0	-1	23	563	0	1	0	;
	591	615	1.0	-1	23	564	0	1	0	;
	592	616	1.0	-1	23	565	0	1	0	;
	593	617	1.0	-1	23	566	0	1	0	;
	594	618	1.0	-1	23	567	0	1	0	;
	595	619	1.0	-1	23	568	0	1	0	;
	596	620	1.0	-1	23	569	0	1	0	;
	597	621	1.0	-1	23	570	0	1	0	;
	598	622	1.0	-1	23	571	0	1	0	;
	599	623	1.0	-1	23	572	0	1	0	;
	600	624	1.0	-1	23	573	0	1	0	;
	601	625	1.0	-1	23	574	0	1	0	;
	602	626	1.0	-1	23	575	0	1	0	;
	603	627	1.0	-1	24	576	0	1	0	;
	604	628	1.0	-1	24	577	0	1	0	;
	605	629	1.0	-1	24	578	0	1	0	;
	606	630	1.0	-1	24	579	0	1	0	;
	607	631	1.0	-1	24	580	0	1	0	;
	608	632	1.0	-1	24	581	0	1	0	;
	609	633	1.0	-1	24	582	0	1	0	;
	610	634	1.0	-1	24	583	0	1	0	;
	611	635	1.0	-1	24	584	0	1	0	;
	612	636	1.0	-1	24	585	0	1	0	;
	613	637	1.0	-1	24	586	0	1	0	;
	614	638	1.0	-1	24	587	0	1	0	;
	615	639	1.0	-1	24	588	0	1	0	;
	616	640	1.0	-1	24	589	0	1	0	;
	617	641	1.0	-1	24	590	0	1	0	;
	618	642	1.0	-1	24	591	0	1	0	;
	619	643	1.0	-1	24	592	0	1	0	;
	620	644	1.0	-1	24	593	0	1	0	;
	621	645	1.0	-1	24	594	0	1	0	;
	622	646	1.0	-1	24	595	0	1	0	;
	623	647	1.0	-1	24	596	0	1	0	;
	624	648	1.0	-1	24	597	0	1	0	;
	625	649	1.0	-1	24	598	0	1	0	;
	626	650	1.0	-1	24	599	0	1	0	;
	627	651	1.0	-1	25	600	0	1	0	;
	628	652	1.0	-1	25	601	0	1	0	;
	629	653	1.0	-1	25	602	0	1	0	;
	630	654	1.0	-1	25	603	0	1	0	;
	631	655	1.0	-1	25	604	0	1	0	;
	632	656	1.0	-1	25	605	0	1	0	;
	633	657	1.0	-1	25	606	0	1	0	;
	634	658	1.0	-1	25	607	0	1	0	;
	635	659	1.0	-1	25	608	0	1	0	;
	636	660	1.0	-1	25	609	0	1	0	;
	637	661	1.0	-1	25	610	0	1	0	;
	638	662	1.0	-1	25	611	0	1	0	;
	639	663	1.0	-1	25	612	0	1	0	;
	640	664	1.0	-1	25	613	0	1	0	;
	641	665	1.0	-1	25	614	0	1	0	;
	642	666	1.0	-1	25	615	0	1	0	;
	643	667	1.0	-1	25	616	0	1	0	;
	644	668	1.0	-1	25	617	0	1	0	;
	645	669	1.0	-1	25	618	0	1	0	;
	646	670	1.0	-1	25	619	0	1	0	;
	647	671	1.0	-1	25	620	0	1	0	;
	648	672	1.0	-1	25	621	0	1	0	;
	649	673	1.0	-1	25	622	0	1	0	;
	650	674	1.0	-1	25	623	0	1	0	;
	651	675	1.0	-1	26	624	0	1	0	;
	652	676	1.0	-1	26	625	0	1	0	;
	653	677	1.0	-1	26	626	0	1	0	;
	654	678	1.0	-1	26	627	0	1	0	;
	655	679	1.0	-1	26	628	0	1	0	;
	656	680	1.0	-1	26	629	0	1	0	;
	657	681	1.0	-1	26	630	0	1	0	;
	658	682	1.0	-1	26	631	0	1	0	;
	659	683	1.0	-1	26	632	0	1	0	;
	660	684	1.0	-1	26	633	0	1	0	;
	661	685	1.0	-1	26	634	0	1	0	;
	662	686	1.0	-1	26	635	0	1	0	;
	663	687	1.0	-1	26	636	0	1	0	;
	664	688	1.0	-1	26	637	0	1	0	;
	665	689	1.0	-1	26	638	0	1	0	;
	666	690	1.0	-1	26	639	0	1	0	;
	667	691	1.0	-1	26	640	0	1	0	;
	668	692	1.0	-1	26	641	0	1	0	;
	669	693	1.0	-1	26	642	0	1	0	;
	670	694	1.0	-1	26	643	0	1	0	;
	671	695	1.0	-1	26	644	0	1	0	;
	672	696	1.0	-1	26	645	0	1	0	;
	673	697	1.0	-1	26	646	0	1	0	;
	674	698	1.0	-1	26	647	0	1	0	;
	675	699	1.0	-1	27	648	0	1	0	;
	676	700	1.0	-1	27	649	0	1	0	;
	677	701	1.0	-1	27	650	0	1	0	;
	678	702	1.0	-1	27	651	0	1	0	;
	679	703	1.0	-1	27	652	0	1	0	;
	680	704	1.0	-1	27	653	0	1	0	;
	681	705	1.0	-1	27	654	0	1	0	;
	682	706	1.0	-1	27	655	0	1	0	;
	683	707	1.0	-1	27	656	0	1	0	;
	684	708	1.0	-1	27	657	0	1	0	;
	685	709	1.0	-1	27	658	0	1	0	;
	686	710	1.0	-1	27	659	0	1	0	;
	687	711	1.0	-1	27	660	0	1	0	;
	688	712	1.0	-1	27	661	0	1	0	;
	689	713	1.0	-1	27	662	0	1	0	;
	690	714	1.0	-1	27	663	0	1	0	;
	691	715	1.0	-1	27	664	0	1	0	;
	692	716	1.0	-1	27	665	0	1	0	;
	693	717	1.0	-1	27	666	0	1	0	;
	694	718	1.0	-1	27	667	0	1	0	;
	695	719	1.0	-1	27	668	0	1	0	;
	696	720	1.0	-1	27	669	0	1	0	;
	697	721	1.0	-1	27	670	0	1	0	;
	698	722	1.0	-1	27	671	0	1	0	;
	699	723	1.0	-1	28	672	0	1	0	;
	700	724	1.0	-1	28	673	0	1	0	;
	701	725	1.0	-1	28	674	0	1	0	;
	702	726	1.0	-1	28	675	0	1	0	;
	703	727	1.0	-1	28	676	0	1	0	;
	704	728	1.0	-1	28	677	0	1	0	;
	705	729	1.0	-1	28	678	0	1	0	;
	706	730	1.0	-1	28	679	0	1	0	;
	707	731	1.0	-1	28	680	0	1	0	;
	708	732	1.0	-1	28	681	0	1	0	;
	709	733	1.0	-1	28	682	0	1	0	;
	710	734	1.0	-1	28	683	0	1	0	;
	711	735	1.0	-1	28	684	0	1	0	;
	712	736	1.0	-1	28	685	0	1	0	;
	713	737	1.0	-1	28	686	0	1	0	;
	714	738	1.0	-1	28	687	0	1	0	;
	715	739	1.0	-1	28	688	0	1	0	;
	716	740	1.0	-1	28	689	0	1	0	;
	717	741	1.0	-1	28	690	0	1	0	;
	718	742	1.0	-1	28	691	0	1	0	;
	719	743	1.0	-1	28	692	0	1	0	;
	720	744	1.0	-1	28	693	0	1	0	;
	721	745	1.0	-1	28	694	0	1	0	;
	722	746	1.0	-1	28	695	0	1	0	;
	723	747	1.0	-1	29	696	0	1	0	;
	724	748	1.0	-1	29	697	0	1	0	;
	725	749	1.0	-1	29	698	0	1	0	;
	726	750	1.0	-1	29	699	0	1	0	;
	727	751	1.0	-1	29	700	0	1	0	;
	728	752	1.0	-1	29	701	0	1	0	;
	729	753	1.0	-1	29	702	0	1	0	;
	730	754	1.0	-1	29	703	0	1	0	;
	731	755	1.0	-1	29	704	0	1	0	;
	732	756	1.0	-1	29	705	0	1	0	;
	733	757	1.0	-1	29	706	0	1	0	;
	734	758	1.0	-1	29	707	0	1	0	;
	735	759	1.0	-1	29	708	0	1	0	;
	736	760	1.0	-1	29	709	0	1	0	;
	737	761	1.0	-1	29	710	0	1	0	;
	738	762	1.0	-1	29	711	0	1	0	;
	739	763	1.0	-1	29	712	0	1	0	;
	740	764	1.0	-1	29	713	0	1	0	;
	741	765	1.0	-1	29	714	0	1	0	;
	742	766	1.0	-1	29	715	0	1	0	;
	743	767	1.0	-1	29	716	0	1	0	;
	744	768	1.0	-1	29	717	0	1	0	;
	745	769	1.0	-1	29	718	0	1	0	;
	746	770	1.0	-1	29	719	0	1	0	;
	747	771	1.0	-1	30	720	0	1	0	;
	748	772	1.0	-1	30	721	0	1	0	;
	749	773	1.0	-1	30	722	0	1	0	;
	750	774	1.0	-1	30	723	0	1	0	;
	751	775	1.0	-1	30	724	0	1	0	;
	752	776	1.0	-1	30	725	0	1	0	;
	753	777	1.0	-1	30	726	0	1	0	;
	754	778	1.0	-1	30	727	0	1	0	;
	755	779	1.0	-1	30	728	0	1	0	;
	756	780	1.0	-1	30	729	0	1	0	;
	757	781	1.0	-1	30	730	0	1	0	;
	758	782	1.0	-1	30	731	0	1	0	;
	759	783	1.0	-1	30	732	0	1	0	;
	760	784	1.0	-1	30	733	0	1	0	;
	761	785	1.0	-1	30	734	0	1	0	;
	762	786	1.0	-1	30	735	0	1	0	;
	763	787	1.0	-1	30	736	0	1	0	;
	764	788	1.0	-1	30	737	0	1	0	;
	765	789	1.0	-1	30	738	0	1	0	;
	766	790	1.0	-1	30	739	0	1	0	;
	767	791	1.0	-1	30	740	0	1	0	;
	768	792	1.0	-1	30	741	0	1	0	;
	769	793	1.0	-1	30	742	0	1	0	;
	770	794	1.0	-1	30	743	0	1	0	;
	771	795	1.0	-1	31	744	0	1	0	;
	772	796	1.0	-1	31	745	0	1	0	;
	773	797	1.0	-1	31	746	0	1	0	;
	774	798	1.0	-1	31	747	0	1	0	;
	775	799	1.0	-1	31	748	0	1	0	;
	776	800	1.0	-1	31	749	0	1	0	;
	777	801	1.0	-1	31	750	0	1	0	;
	778	802	1.0	-1	31	751	0	1	0	;
	779	803	1.0	-1	31	752	0	1	0	;
	780	804	1.0	-1	31	753	0	1	0	;
	781	805	1.0	-1	31	754	0	1	0	;
	782	806	1.0	-1	31	755	0	1	0	;
	783	807	1.0	-1	31	756	0	1	0	;
	784	808	1.0	-1	31	757	0	1	0	;
	785	809	1.0	-1	31	758	0	1	0	;
	786	810	1.0	-1	31	759	0	1	0	;
	787	811	1.0	-1	31	760	0	1	0	;
	788	812	1.0	-1	31	761	0	1	0	;
	789	813	1.0	-1	31	762	0	1	0	;
	790	814	1.0	-1	31	763	0	1	0	;
	791	815	1.0	-1	31	764	0	1	0	;
	792	816	1.0	-1	31	765	0	1	0	;
	793	817	1.0	-1	31	766	0	1	0	;
	794	818	1.0	-1	31	767	0	1	0	;
	795	819	1.0	-1	32	768	0	1	0	;
	796	820	1.0	-1	32	769	0	1	0	;
	797	821	1.0	-1	32	770	0	1	0	;
	798	822	1.0	-1	32	771	0	1	0	;
	799	823	1.0	-1	32	772	0	1	0	;
	800	824	1.0	-1	32	773	0	1	0	;
	801	825	1.0	-1	32	774	0	1	0	;
	802	826	1.0	-1	32	775	0	1	0	;
	803	827	1.0	-1	32	776	0	1	0	;
	804	828	1.0	-1	32	777	0	1	0	;
	805	829	1.0	-1	32	778	0	1	0	;
	806	830	1.0	-1	32	779	0	1	0	;
	807	831	1.0	-1	32	780	0	1	0	;
	808	832	1.0	-1	32	781	0	1	0	;
	809	833	1.0	-1	32	782	0	1	0	;
	810	834	1.0	-1	32	783	0	1	0	;
	811	835	1.0	-1	32	784	0	1	0	;
	812	836	1.0	-1	32	785	0	1	0	;
	813	837	1.0	-1	32	786	0	1	0	;
	814	838	1.0	-1	32	787	0	1	0	;
	815	839	1.0	-1	32	788	0	1	0	;
	816	840	1.0	-1	32	789	0	1	0	;
	817	841	1.0	-1	32	790	0	1	0	;
	818	842	1.0	-1	32	791	0	1	0	;
	819	843	1.0	-1	33	792	0	1	0	;
	820	844	1.0	-1	33	793	0	1	0	;
	821	845	1.0	-1	33	794	0	1	0	;
	822	846	1.0	-1	33	795	0	1	0	;
	823	847	1.0	-1	33	796	0	1	0	;
	824	848	1.0	-1	33	797	0	1	0	;
	825	849	1.0	-1	33	798	0	1	0	;
	826	850	1.0	-1	33	799	0	1	0	;
	827	851	1.0	-1	33	800	0	1	0	;
	828	852	1.0	-1	33	801	0	1	0	;
	829	853	1.0	-1	33	802	0	1	0	;
	830	854	1.0	-1	33	803	0	1	0	;
	831	855	1.0	-1	33	804	0	1	0	;
	832	856	1.0	-1	33	805	0	1	0	;
	833	857	1.0	-1	33	806	0	1	0	;
	834	858	1.0	-1	33	807	0	1	0	;
	835	859	1.0	-1	33	808	0	1	0	;
	836	860	1.0	-1	33	809	0	1	0	;
	837	861	1.0	-1	33	810	0	1	0	;
	838	862	1.0	-1	33	811	0	1	0	;
	839	863	1.0	-1	33	812	0	1	0	;
	840	864	1.0	-1	33	813	0	1	0	;
	841	865	1.0	-1	33	814	0	1	0	;
	842	866	1.0	-1	33	815	0	1	0	;
	843	867	1.0	-1	34	816	0	1	0	;
	844	868	1.0	-1	34	817	0	1	0	;
	845	869	1.0	-1	34	818	0	1	0	;
	846	870	1.0	-1	34	819	0	1	0	;
	847	871	1.0	-1	34	820	0	1	0	;
	848	872	1.0	-1	34	821	0	1	0	;
	849	873	1.0	-1	34	822	0	1	0	;
	850	874	1.0	-1	34	823	0	1	0	;
	851	875	1.0	-1	34	824	0	1	0	;
	852	876	1.0	-1	34	825	0	1	0	;
	853	877	1.0	-1	34	826	0	1	0	;
	854	878	1.0	-1	34	827	0	1	0	;
	855	879	1.0	-1	34	828	0	1	0	;
	856	880	1.0	-1	34	829	0	1	0	;
	857	881	1.0	-1	34	830	0	1	0	;
	858	882	1.0	-1	34	831	0	1	0	;
	859	883	1.0	-1	34	832	0	1	0	;
	860	884	1.0	-1	34	833	0	1	0	;
	861	885	1.0	-1	34	834	0	1	0	;
	862	886	1.0	-1	34	835	0	1	0	;
	863	887	1.0	-1	34	836	0	1	0	;
	864	888	1.0	-1	34	837	0	1	0	;
	865	889	1.0	-1	34	838	0	1	0	;
	866	890	1.0	-1	34	839	0	1	0	;
	867	891	1.0	-1	35	840	0	1	0	;
	868	892	1.0	-1	35	841	0	1	0	;
	869	893	1.0	-1	35	842	0	1	0	;
	870	894	1.0	-1	35	843	0	1	0	;
	871	895	1.0	-1	35	844	0	1	0	;
	872	896	1.0	-1	35	845	0	1	0	;
	873	897	1.0	-1	35	846	0	1	0	;
	874	898	1.0	-1	35	847	0	1	0	;
	875	899	1.0	-1	35	848	0	1	0	;
	876	900	1.0	-1	35	849	0	1	0	;
	877	901	1.0	-1	35	850	0	1	0	;
	878	902	1.0	-1	35	851	0	1	0	;
	879	903	1.0	-1	35	852	0	1	0	;
	880	904	1.0	-1	35	853	0	1	0	;
	881	905	1.0	-1	35	854	0	1	0	;
	882	906	1.0	-1	35	855	0	1	0	;
	883	907	1.0	-1	35	856	0	1	0	;
	884	908	1.0	-1	35	857	0	1	0	;
	885	909	1.0	-1	35	858	0	1	0	;
	886	910	1.0	-1	35	859	0	1	0	;
	887	911	1.0	-1	35	860	0	1	0	;
	888	912	1.0	-1	35	861	0	1	0	;
	889	913	1.0	-1	35	862	0	1	0	;
	890	914	1.0	-1	35	863	0	1	0	;
	891	915	1.0	-1	36	864	0	1	0	;
	892	916	1.0	-1	36	865	0	1	0	;
	893	917	1.0	-1	36	866	0	1	0	;
	894	918	1.0	-1	36	867	0	1	0	;
	895	919	1.0	-1	36	868	0	1	0	;
	896	920	1.0	-1	36	869	0	1	0	;
	897	921	1.0	-1	36	870	0	1	0	;
	898	922	1.0	-1	36	871	0	1	0	;
	899	923	1.0	-1	36	872	0	1	0	;
	900	924	1.0	-1	36	873	0	1	0	;
	901	925	1.0	-1	36	874	0	1	0	;
	902	926	1.0	-1	36	875	0	1	0	;
	903	927	1.0	-1	36	876	0	1	0	;
	904	928	1.0	-1	36	877	0	1	0	;
	905	929	1.0	-1	36	878	0	1	0	;
	906	930	1.0	-1	36	879	0	1	0	;
	907	931	1.0	-1	36	880	0	1	0	;
	908	932	1.0	-1	36	881	0	1	0	;
	909	933	1.0	-1	36	882	0	1	0	;
	910	934	1.0	-1	36	883	0	1	0	;
	911	935	1.0	-1	36	884	0	1	0	;
	912	936	1.0	-1	36	885	0	1	0	;
	913	937	1.0	-1	36	886	0	1	0	;
	914	938	1.0	-1	36	887	0	1	0	;
	915	939	1.0	-1	37	888	0	1	0	;
	916	940	1.0	-1	37	889	0	1	0	;
	917	941	1.0	-1	37	890	0	1	0	;
	918	942	1.0	-1	37	891	0	1	0	;
	919	943	1.0	-1	37	892	0	1	0	;
	920	944	1.0	-1	37	893	0	1	0	;
	921	945	1.0	-1	37	894	0	1	0	;
	922	946	1.0	-1	37	895	0	1	0	;
	923	947	1.0	-1	37	896	0	1	0	;
	924	948	1.0	-1	37	897	0	1	0	;
	925	949	1.0	-1	37	898	0	1	0	;
	926	950	1.0	-1	37	899	0	1	0	;
	927	951	1.0	-1	37	900	0	1	0	;
	928	952	1.0	-1	37	901	0	1	0	;
	929	953	1.0	-1	37	902	0	1	0	;
	930	954	1.0	-1	37	903	0	1	0	;
	931	955	1.0	-1	37	904	0	1	0	;
	932	956	1.0	-1	37	905	0	1	0	;
	933	957	1.0	-1	37	906	0	1	0	;
	934	958	1.0	-1	37	907	0	1	0	;
	935	959	1.0	-1	37	908	0	1	0	;
	936	960	1.0	-1	37	909	0	1	0	;
	937	961	1.0	-1	37	910	0	1	0	;
	938	962	1.0	-1	37	911	0	1	0	;
	939	963	1.0	-1	38	912	0	1	0	;
	940	964	1.0	-1	38	913	0	1	0	;
	941	965	1.0	-1	38	914	0	1	0	;
	942	966	1.0	-1	38	915	0	1	0	;
	943	967	1.0	-1	38	916	0	1	0	;
	944	968	1.0	-1	38	917	0	1	0	;
	945	969	1.0	-1	38	918	0	1	0	;
	946	970	1.0	-1	38	919	0	1	0	;
	947	971	1.0	-1	38	920	0	1	0	;
	948	972	1.0	-1	38	921	0	1	0	;
	949	973	1.0	-1	38	922	0	1	0	;
	950	974	1.0	-1	38	923	0	1	0	;
	951	975	1.0	-1	38	924	0	1	0	;
	952	976	1.0	-1	38	925	0	1	0	;
	953	977	1.0	-1	38	926	0	1	0	;
	954	978	1.0	-1	38	927	0	1	0	;
	955	979	1.0	-1	38	928	0	1	0	;
	956	980	1.0	-1	38	929	0	1	0	;
	957	981	1.0	-1	38	930	0	1	0	;
	958	982	1.0	-1	38	931	0	1	0	;
	959	983	1.0	-1	38	932	0	1	0	;
	960	984	1.0	-1	38	933	0	1	0	;
	961	985	1.0	-1	38	934	0	1	0	;
	962	986	1.0	-1	38	935	0	1	0	;
	987	1012	6.0	0	0	0	1	1	2	;
	987	1024	4.0	1	0	1	1	1	2	;
	988	1011	6.0	2	0	2	1	1	2	;
	988	1025	5.0	3	0	3	1	1	2	;
	989	1014	2.0	4	0	4	1	1	2	;
	989	1024	4.0	5	0	5	1	1	2	;
	989	1016	6.0	6	0	6	1	1	2	;
	990	1013	2.0	7	0	7	1	1	2	;
	990	1025	4.0	8	0	8	1	1	2	;
	990	1028	5.0	9	0	9	1	1	2	;
	991	1016	5.0	10	0	10	1	1	2	;
	991	1031	8.0	11	0	11	1	1	2	;
	991	1030	4.0	12	0	12	1	1	2	;
	991	1019	6.0	13	0	13	1	1	2	;
	991	1028	3.0	14	0	14	1	1	2	;
	992	1018	4.0	15	0	15	1	1	2	;
	992	1015	5.0	16	0	16	1	1	2	;
	992	1013	6.0	17	0	17	1	1	2	;
	992	1029	6.0	18	0	18	1	1	2	;
	993	1023	4.0	19	0	19	1	1	2	;
	993	1029	3.0	20	0	20	1	1	2	;
	994	1034	4.0	21	0	21	1	1	2	;
	994	1019	5.0	22	0	22	1	1	2	;
	994	1016	4.0	23	0	23	1	1	2	;
	995	1033	3.0	24	0	24	1	1	2	;
	995	1020	3.0	25	0	25	1	1	2	;
	995	1018	5.0	26	0	26	1	1	2	;
	995	1015	6.0	27	0	27	1	1	2	;
	996	1019	3.0	28	0	28	1	1	2	;
	996	1021	4.0	29	0	29	1	1	2	;
	996	1031	2.0	30	0	30	1	1	2	;
	997	1032	4.0	31	0	31	1	1	2	;
	997	1020	4.0	32	0	32	1	1	2	;
	997	1022	6.0	33	0	33	1	1	2	;
	997	1033	5.0	34	0	34	1	1	2	;
	998	1021	6.0	35	0	35	1	1	2	;
	998	1033	2.0	36	0	36	1	1	2	;
	998	1023	3.0	37	0	37	1	1	2	;
	999	1022	3.0	38	0	38	1	1	2	;
	999	1017	4.0	39	0	39	1	1	2	;
	999	1034	2.0	40	0	40	1	1	2	;