<NUMBER OF ZONES> 72
<TOTAL OD FLOW> 100000.0
<END OF METADATA>



Origin  1
	37 :	99.0;	38 :	3.0;	39 :	120.0;	40 :	97.0;	41 :	149.0;
	42 :	48.0;	43 :	110.0;	44 :	12.0;	45 :	150.0;	46 :	58.0;
	47 :	38.0;	48 :	87.0;	49 :	86.0;	50 :	29.0;	51 :	131.0;
	52 :	73.0;	53 :	102.0;	54 :	145.0;	55 :	150.0;	56 :	66.0;
	57 :	122.0;	58 :	82.0;	59 :	2.0;	60 :	49.0;	61 :	114.0;
	62 :	81.0;	63 :	4.0;	64 :	30.0;	65 :	31.0;	66 :	152.0;
	67 :	85.0;	68 :	132.0;	69 :	148.0;	70 :	140.0;	71 :	156.0;
	72 :	31.0;

Origin  2
	37 :	4.0;	38 :	92.0;	39 :	44.0;	40 :	117.0;	41 :	49.0;
	42 :	63.0;	43 :	92.0;	44 :	20.0;	45 :	135.0;	46 :	13.0;
	47 :	111.0;	48 :	63.0;	49 :	107.0;	50 :	25.0;	51 :	140.0;
	52 :	139.0;	53 :	14.0;	54 :	34.0;	55 :	64.0;	56 :	148.0;
	57 :	81.0;	58 :	86.0;	59 :	84.0;	60 :	1.0;	61 :	129.0;
	62 :	89.0;	63 :	15.0;	64 :	57.0;	65 :	82.0;	66 :	39.0;
	67 :	141.0;	68 :	120.0;	69 :	31.0;	70 :	77.0;	71 :	135.0;
	72 :	29.0;

Origin  3
	37 :	66.0;	38 :	79.0;	39 :	58.0;	40 :	34.0;	41 :	145.0;
	42 :	84.0;	43 :	88.0;	44 :	129.0;	45 :	91.0;	46 :	121.0;
	47 :	36.0;	48 :	125.0;	49 :	22.0;	50 :	64.0;	51 :	75.0;
	52 :	77.0;	53 :	75.0;	54 :	16.0;	55 :	80.0;	56 :	104.0;
	57 :	123.0;	58 :	49.0;	59 :	9.0;	60 :	28.0;	61 :	126.0;
	62 :	27.0;	63 :	70.0;	64 :	46.0;	65 :	1.0;	66 :	130.0;
	67 :	1.0;	68 :	94.0;	69 :	44.0;	70 :	125.0;	71 :	88.0;
	72 :	151.0;

Origin  4
	37 :	80.0;	38 :	145.0;	39 :	13.0;	40 :	112.0;	41 :	31.0;
	42 :	151.0;	43 :	156.0;	44 :	110.0;	45 :	37.0;	46 :	85.0;
	47 :	11.0;	48 :	82.0;	49 :	11.0;	50 :	101.0;	51 :	76.0;
	52 :	148.0;	53 :	101.0;	54 :	94.0;	55 :	41.0;	56 :	146.0;
	57 :	98.0;	58 :	54.0;	59 :	138.0;	60 :	64.0;	61 :	31.0;
	62 :	58.0;	63 :	79.0;	64 :	150.0;	65 :	128.0;	66 :	36.0;
	67 :	114.0;	68 :	150.0;	69 :	23.0;	70 :	53.0;	71 :	91.0;
	72 :	52.0;

Origin  5
	37 :	116.0;	38 :	46.0;	39 :	4.0;	40 :	98.0;	41 :	49.0;
	42 :	57.0;	43 :	118.0;	44 :	73.0;	45 :	119.0;	46 :	131.0;
	47 :	121.0;	48 :	123.0;	49 :	123.0;	50 :	136.0;	51 :	93.0;
	52 :	122.0;	53 :	126.0;	54 :	26.0;	55 :	4.0;	56 :	103.0;
	57 :	98.0;	58 :	44.0;	59 :	58.0;	60 :	20.0;	61 :	7.0;
	62 :	40.0;	63 :	155.0;	64 :	17.0;	65 :	152.0;	66 :	119.0;
	67 :	107.0;	68 :	78.0;	69 :	116.0;	70 :	100.0;	71 :	102.0;
	72 :	102.0;

Origin  6
	37 :	55.0;	38 :	137.0;	39 :	45.0;	40 :	119.0;	41 :	18.0;
	42 :	16.0;	43 :	76.0;	44 :	11.0;	45 :	31.0;	46 :	14.0;
	47 :	125.0;	48 :	19.0;	49 :	138.0;	50 :	6.0;	51 :	67.0;
	52 :	106.0;	53 :	125.0;	54 :	55.0;	55 :	9.0;	56 :	74.0;
	57 :	122.0;	58 :	120.0;	59 :	115.0;	60 :	154.0;	61 :	116.0;
	62 :	82.0;	63 :	72.0;	64 :	153.0;	65 :	78.0;	66 :	42.0;
	67 :	117.0;	68 :	111.0;	69 :	90.0;	70 :	23.0;	71 :	47.0;
	72 :	101.0;

Origin  7
	37 :	123.0;	38 :	144.0;	39 :	101.0;	40 :	49.0;	41 :	111.0;
	42 :	111.0;	43 :	33.0;	44 :	62.0;	45 :	31.0;	46 :	59.0;
	47 :	17.0;	48 :	142.0;	49 :	58.0;	50 :	126.0;	51 :	76.0;
	52 :	11.0;	53 :	88.0;	54 :	40.0;	55 :	41.0;	56 :	81.0;
	57 :	94.0;	58 :	65.0;	59 :	125.0;	60 :	87.0;	61 :	121.0;
	62 :	125.0;	63 :	84.0;	64 :	150.0;	65 :	149.0;	66 :	101.0;
	67 :	11.0;	68 :	44.0;	69 :	115.0;	70 :	105.0;	71 :	45.0;
	72 :	129.0;

Origin  8
	37 :	67.0;	38 :	96.0;	39 :	117.0;	40 :	35.0;	41 :	105.0;
	42 :	76.0;	43 :	21.0;	44 :	21.0;	45 :	29.0;	46 :	88.0;
	47 :	17.0;	48 :	130.0;	49 :	139.0;	50 :	115.0;	51 :	130.0;
	52 :	11.0;	53 :	79.0;	54 :	83.0;	55 :	38.0;	56 :	100.0;
	57 :	89.0;	58 :	130.0;	59 :	23.0;	60 :	136.0;	61 :	22.0;
	62 :	11.0;	63 :	43.0;	64 :	147.0;	65 :	102.0;	66 :	149.0;
	67 :	21.0;	68 :	130.0;	69 :	35.0;	70 :	112.0;	71 :	61.0;
	72 :	91.0;

Origin  9
	37 :	30.0;	38 :	4.0;	39 :	15.0;	40 :	67.0;	41 :	118.0;
	42 :	111.0;	43 :	148.0;	44 :	121.0;	45 :	135.0;	46 :	46.0;
	47 :	33.0;	48 :	24.0;	49 :	127.0;	50 :	0.0;	51 :	104.0;
	52 :	65.0;	53 :	1.0;	54 :	77.0;	55 :	117.0;	56 :	140.0;
	57 :	57.0;	58 :	49.0;	59 :	151.0;	60 :	102.0;	61 :	95.0;
	62 :	58.0;	63 :	123.0;	64 :	62.0;	65 :	77.0;	66 :	132.0;
	67 :	26.0;	68 :	67.0;	69 :	116.0;	70 :	89.0;	71 :	8.0;
	72 :	63.0;

Origin  10
	37 :	40.0;	38 :	121.0;	39 :	93.0;	40 :	32.0;	41 :	2.0;
	42 :	14.0;	43 :	50.0;	44 :	39.0;	45 :	65.0;	46 :	31.0;
	47 :	72.0;	48 :	85.0;	49 :	21.0;	50 :	138.0;	51 :	78.0;
	52 :	42.0;	53 :	15.0;	54 :	83.0;	55 :	107.0;	56 :	112.0;
	57 :	69.0;	58 :	77.0;	59 :	67.0;	60 :	13.0;	61 :	99.0;
	62 :	28.0;	63 :	15.0;	64 :	56.0;	65 :	149.0;	66 :	88.0;
	67 :	145.0;	68 :	57.0;	69 :	146.0;	70 :	41.0;	71 :	93.0;
	72 :	50.0;

Origin  11
	37 :	22.0;	38 :	64.0;	39 :	40.0;	40 :	94.0;	41 :	99.0;
	42 :	0.0;	43 :	30.0;	44 :	142.0;	45 :	62.0;	46 :	32.0;
	47 :	62.0;	48 :	126.0;	49 :	3.0;	50 :	33.0;	51 :	9.0;
	52 :	125.0;	53 :	134.0;	54 :	45.0;	55 :	11.0;	56 :	10.0;
	57 :	140.0;	58 :	37.0;	59 :	9.0;	60 :	38.0;	61 :	88.0;
	62 :	152.0;	63 :	80.0;	64 :	63.0;	65 :	94.0;	66 :	84.0;
	67 :	152.0;	68 :	41.0;	69 :	149.0;	70 :	38.0;	71 :	149.0;
	72 :	24.0;

Origin  12
	37 :	96.0;	38 :	75.0;	39 :	155.0;	40 :	51.0;	41 :	152.0;
	42 :	83.0;	43 :	93.0;	44 :	143.0;	45 :	79.0;	46 :	35.0;
	47 :	47.0;	48 :	56.0;	49 :	70.0;	50 :	149.0;	51 :	74.0;
	52 :	96.0;	53 :	89.0;	54 :	87.0;	55 :	112.0;	56 :	6.0;
	57 :	75.0;	58 :	70.0;	59 :	8.0;	60 :	137.0;	61 :	47.0;
	62 :	107.0;	63 :	119.0;	64 :	132.0;	65 :	37.0;	66 :	141.0;
	67 :	106.0;	68 :	69.0;	69 :	39.0;	70 :	40.0;	71 :	22.0;
	72 :	111.0;

Origin  13
	37 :	155.0;	38 :	131.0;	39 :	3.0;	40 :	13.0;	41 :	131.0;
	42 :	105.0;	43 :	5.0;	44 :	129.0;	45 :	125.0;	46 :	87.0;
	47 :	91.0;	48 :	102.0;	49 :	75.0;	50 :	123.0;	51 :	155.0;
	52 :	110.0;	53 :	126.0;	54 :	89.0;	55 :	39.0;	56 :	40.0;
	57 :	13.0;	58 :	55.0;	59 :	69.0;	60 :	100.0;	61 :	118.0;
	62 :	1.0;	63 :	80.0;	64 :	117.0;	65 :	137.0;	66 :	150.0;
	67 :	11.0;	68 :	38.0;	69 :	19.0;	70 :	106.0;	71 :	2.0;
	72 :	23.0;

Origin  14
	37 :	146.0;	38 :	13.0;	39 :	55.0;	40 :	62.0;	41 :	60.0;
	42 :	116.0;	43 :	88.0;	44 :	75.0;	45 :	143.0;	46 :	44.0;
	47 :	69.0;	48 :	58.0;	49 :	12.0;	50 :	139.0;	51 :	41.0;
	52 :	3.0;	53 :	2.0;	54 :	114.0;	55 :	98.0;	56 :	39.0;
	57 :	55.0;	58 :	24.0;	59 :	37.0;	60 :	52.0;	61 :	155.0;
	62 :	133.0;	63 :	45.0;	64 :	83.0;	65 :	145.0;	66 :	90.0;
	67 :	84.0;	68 :	126.0;	69 :	113.0;	70 :	126.0;	71 :	62.0;
	72 :	76.0;

Origin  15
	37 :	16.0;	38 :	33.0;	39 :	50.0;	40 :	52.0;	41 :	149.0;
	42 :	140.0;	43 :	121.0;	44 :	50.0;	45 :	43.0;	46 :	93.0;
	47 :	104.0;	48 :	5.0;	49 :	41.0;	50 :	19.0;	51 :	114.0;
	52 :	17.0;	53 :	133.0;	54 :	48.0;	55 :	141.0;	56 :	63.0;
	57 :	155.0;	58 :	119.0;	59 :	62.0;	60 :	134.0;	61 :	10.0;
	62 :	132.0;	63 :	105.0;	64 :	6.0;	65 :	61.0;	66 :	68.0;
	67 :	147.0;	68 :	148.0;	69 :	16.0;	70 :	14.0;	71 :	143.0;
	72 :	130.0;

Origin  16
	37 :	81.0;	38 :	39.0;	39 :	89.0;	40 :	56.0;	41 :	94.0;
	42 :	90.0;	43 :	140.0;	44 :	18.0;	45 :	72.0;	46 :	62.0;
	47 :	111.0;	48 :	94.0;	49 :	12.0;	50 :	62.0;	51 :	62.0;
	52 :	102.0;	53 :	9.0;	54 :	26.0;	55 :	83.0;	56 :	9.0;
	57 :	156.0;	58 :	47.0;	59 :	137.0;	60 :	27.0;	61 :	82.0;
	62 :	1.0;	63 :	146.0;	64 :	124.0;	65 :	37.0;	66 :	127.0;
	67 :	19.0;	68 :	42.0;	69 :	106.0;	70 :	134.0;	71 :	135.0;
	72 :	116.0;

Origin  17
	37 :	33.0;	38 :	12.0;	39 :	31.0;	40 :	59.0;	41 :	151.0;
	42 :	1.0;	43 :	101.0;	44 :	86.0;	45 :	81.0;	46 :	13.0;
	47 :	78.0;	48 :	64.0;	49 :	62.0;	50 :	32.0;	51 :	72.0;
	52 :	149.0;	53 :	65.0;	54 :	105.0;	55 :	50.0;	56 :	0.0;
	57 :	23.0;	58 :	52.0;	59 :	46.0;	60 :	135.0;	61 :	6.0;
	62 :	31.0;	63 :	39.0;	64 :	21.0;	65 :	152.0;	66 :	37.0;
	67 :	79.0;	68 :	135.0;	69 :	144.0;	70 :	5.0;	71 :	55.0;
	72 :	107.0;

Origin  18
	37 :	143.0;	38 :	4.0;	39 :	111.0;	40 :	126.0;	41 :	41.0;
	42 :	5.0;	43 :	72.0;	44 :	130.0;	45 :	33.0;	46 :	93.0;
	47 :	92.0;	48 :	24.0;	49 :	112.0;	50 :	155.0;	51 :	85.0;
	52 :	54.0;	53 :	43.0;	54 :	148.0;	55 :	129.0;	56 :	141.0;
	57 :	84.0;	58 :	32.0;	59 :	113.0;	60 :	141.0;	61 :	43.0;
	62 :	67.0;	63 :	52.0;	64 :	125.0;	65 :	31.0;	66 :	17.0;
	67 :	120.0;	68 :	120.0;	69 :	51.0;	70 :	52.0;	71 :	79.0;
	72 :	79.0;

Origin  19
	37 :	30.0;	38 :	119.0;	39 :	105.0;	40 :	156.0;	41 :	46.0;
	42 :	11.0;	43 :	60.0;	44 :	138.0;	45 :	64.0;	46 :	52.0;
	47 :	140.0;	48 :	81.0;	49 :	129.0;	50 :	141.0;	51 :	155.0;
	52 :	45.0;	53 :	101.0;	54 :	149.0;	55 :	1.0;	56 :	154.0;
	57 :	20.0;	58 :	88.0;	59 :	94.0;	60 :	106.0;	61 :	43.0;
	62 :	43.0;	63 :	18.0;	64 :	154.0;	65 :	79.0;	66 :	14.0;
	67 :	42.0;	68 :	61.0;	69 :	10.0;	70 :	2.0;	71 :	31.0;
	72 :	35.0;

Origin  20
	37 :	38.0;	38 :	57.0;	39 :	25.0;	40 :	140.0;	41 :	24.0;
	42 :	127.0;	43 :	80.0;	44 :	117.0;	45 :	94.0;	46 :	79.0;
	47 :	57.0;	48 :	38.0;	49 :	7.0;	50 :	98.0;	51 :	111.0;
	52 :	133.0;	53 :	55.0;	54 :	152.0;	55 :	73.0;	56 :	109.0;
	57 :	56.0;	58 :	90.0;	59 :	130.0;	60 :	32.0;	61 :	128.0;
	62 :	105.0;	63 :	107.0;	64 :	27.0;	65 :	109.0;	66 :	13.0;
	67 :	20.0;	68 :	8.0;	69 :	103.0;	70 :	21.0;	71 :	74.0;
	72 :	118.0;

Origin  21
	37 :	6.0;	38 :	35.0;	39 :	28.0;	40 :	3.0;	41 :	86.0;
	42 :	132.0;	43 :	127.0;	44 :	27.0;	45 :	111.0;	46 :	124.0;
	47 :	111.0;	48 :	23.0;	49 :	152.0;	50 :	81.0;	51 :	135.0;
	52 :	6.0;	53 :	40.0;	54 :	122.0;	55 :	121.0;	56 :	33.0;
	57 :	64.0;	58 :	140.0;	59 :	14.0;	60 :	51.0;	61 :	126.0;
	62 :	8.0;	63 :	94.0;	64 :	103.0;	65 :	100.0;	66 :	40.0;
	67 :	49.0;	68 :	22.0;	69 :	54.0;	70 :	100.0;	71 :	62.0;
	72 :	116.0;

Origin  22
	37 :	84.0;	38 :	152.0;	39 :	144.0;	40 :	129.0;	41 :	17.0;
	42 :	58.0;	43 :	80.0;	44 :	89.0;	45 :	28.0;	46 :	97.0;
	47 :	82.0;	48 :	84.0;	49 :	82.0;	50 :	48.0;	51 :	123.0;
	52 :	90.0;	53 :	121.0;	54 :	83.0;	55 :	43.0;	56 :	60.0;
	57 :	13.0;	58 :	28.0;	59 :	120.0;	60 :	23.0;	61 :	8.0;
	62 :	31.0;	63 :	100.0;	64 :	61.0;	65 :	105.0;	66 :	87.0;
	67 :	18.0;	68 :	40.0;	69 :	65.0;	70 :	150.0;	71 :	116.0;
	72 :	100.0;

Origin  23
	37 :	73.0;	38 :	53.0;	39 :	9.0;	40 :	81.0;	41 :	93.0;
	42 :	66.0;	43 :	6.0;	44 :	130.0;	45 :	145.0;	46 :	121.0;
	47 :	8.0;	48 :	13.0;	49 :	9.0;	50 :	126.0;	51 :	98.0;
	52 :	148.0;	53 :	16.0;	54 :	110.0;	55 :	25.0;	56 :	82.0;
	57 :	69.0;	58 :	124.0;	59 :	42.0;	60 :	55.0;	61 :	111.0;
	62 :	99.0;	63 :	42.0;	64 :	127.0;	65 :	69.0;	66 :	73.0;
	67 :	50.0;	68 :	27.0;	69 :	80.0;	70 :	66.0;	71 :	24.0;
	72 :	87.0;

Origin  24
	37 :	20.0;	38 :	84.0;	39 :	79.0;	40 :	45.0;	41 :	75.0;
	42 :	144.0;	43 :	81.0;	44 :	85.0;	45 :	12.0;	46 :	7.0;
	47 :	91.0;	48 :	103.0;	49 :	36.0;	50 :	36.0;	51 :	94.0;
	52 :	59.0;	53 :	37.0;	54 :	123.0;	55 :	85.0;	56 :	48.0;
	57 :	109.0;	58 :	43.0;	59 :	54.0;	60 :	97.0;	61 :	33.0;
	62 :	90.0;	63 :	28.0;	64 :	11.0;	65 :	116.0;	66 :	150.0;
	67 :	49.0;	68 :	74.0;	69 :	11.0;	70 :	106.0;	71 :	9.0;
	72 :	39.0;

Origin  25
	37 :	93.0;	38 :	63.0;	39 :	111.0;	40 :	28.0;	41 :	35.0;
	42 :	73.0;	43 :	44.0;	44 :	115.0;	45 :	97.0;	46 :	8.0;
	47 :	132.0;	48 :	94.0;	49 :	35.0;	50 :	124.0;	51 :	38.0;
	52 :	83.0;	53 :	123.0;	54 :	11.0;	55 :	29.0;	56 :	12.0;
	57 :	94.0;	58 :	22.0;	59 :	52.0;	60 :	30.0;	61 :	75.0;
	62 :	35.0;	63 :	102.0;	64 :	43.0;	65 :	155.0;	66 :	139.0;
	67 :	79.0;	68 :	65.0;	69 :	1.0;	70 :	72.0;	71 :	126.0;
	72 :	96.0;

Origin  26
	37 :	142.0;	38 :	5.0;	39 :	125.0;	40 :	148.0;	41 :	88.0;
	42 :	44.0;	43 :	122.0;	44 :	29.0;	45 :	101.0;	46 :	12.0;
	47 :	54.0;	48 :	30.0;	49 :	8.0;	50 :	130.0;	51 :	69.0;
	52 :	80.0;	53 :	54.0;	54 :	125.0;	55 :	88.0;	56 :	62.0;
	57 :	29.0;	58 :	41.0;	59 :	153.0;	60 :	141.0;	61 :	62.0;
	62 :	104.0;	63 :	143.0;	64 :	1.0;	65 :	38.0;	66 :	20.0;
	67 :	104.0;	68 :	24.0;	69 :	95.0;	70 :	118.0;	71 :	126.0;
	72 :	11.0;

Origin  27
	37 :	67.0;	38 :	5.0;	39 :	138.0;	40 :	16.0;	41 :	74.0;
	42 :	20.0;	43 :	80.0;	44 :	49.0;	45 :	84.0;	46 :	4.0;
	47 :	47.0;	48 :	50.0;	49 :	57.0;	50 :	12.0;	51 :	41.0;
	52 :	132.0;	53 :	57.0;	54 :	131.0;	55 :	156.0;	56 :	150.0;
	57 :	62.0;	58 :	89.0;	59 :	55.0;	60 :	68.0;	61 :	44.0;
	62 :	21.0;	63 :	64.0;	64 :	111.0;	65 :	2.0;	66 :	58.0;
	67 :	135.0;	68 :	41.0;	69 :	149.0;	70 :	58.0;	71 :	120.0;
	72 :	137.0;

Origin  28
	37 :	54.0;	38 :	49.0;	39 :	55.0;	40 :	7.0;	41 :	108.0;
	42 :	11.0;	43 :	84.0;	44 :	25.0;	45 :	124.0;	46 :	32.0;
	47 :	44.0;	48 :	12.0;	49 :	105.0;	50 :	139.0;	51 :	138.0;
	52 :	139.0;	53 :	120.0;	54 :	129.0;	55 :	107.0;	56 :	80.0;
	57 :	92.0;	58 :	30.0;	59 :	61.0;	60 :	4.0;	61 :	135.0;
	62 :	72.0;	63 :	60.0;	64 :	71.0;	65 :	118.0;	66 :	68.0;
	67 :	138.0;	68 :	44.0;	69 :	3.0;	70 :	70.0;	71 :	9.0;
	72 :	147.0;

Origin  29
	37 :	81.0;	38 :	84.0;	39 :	68.0;	40 :	124.0;	41 :	39.0;
	42 :	19.0;	43 :	108.0;	44 :	91.0;	45 :	2.0;	46 :	152.0;
	47 :	58.0;	48 :	36.0;	49 :	62.0;	50 :	43.0;	51 :	40.0;
	52 :	111.0;	53 :	145.0;	54 :	15.0;	55 :	96.0;	56 :	102.0;
	57 :	121.0;	58 :	149.0;	59 :	125.0;	60 :	147.0;	61 :	34.0;
	62 :	4.0;	63 :	95.0;	64 :	106.0;	65 :	47.0;	66 :	143.0;
	67 :	61.0;	68 :	113.0;	69 :	58.0;	70 :	33.0;	71 :	35.0;
	72 :	126.0;

Origin  30
	37 :	69.0;	38 :	71.0;	39 :	156.0;	40 :	30.0;	41 :	80.0;
	42 :	48.0;	43 :	80.0;	44 :	22.0;	45 :	143.0;	46 :	67.0;
	47 :	59.0;	48 :	29.0;	49 :	126.0;	50 :	58.0;	51 :	97.0;
	52 :	126.0;	53 :	132.0;	54 :	153.0;	55 :	17.0;	56 :	133.0;
	57 :	71.0;	58 :	80.0;	59 :	128.0;	60 :	129.0;	61 :	89.0;
	62 :	142.0;	63 :	79.0;	64 :	36.0;	65 :	107.0;	66 :	141.0;
	67 :	141.0;	68 :	94.0;	69 :	117.0;	70 :	128.0;	71 :	142.0;
	72 :	2.0;

Origin  31
	37 :	54.0;	38 :	92.0;	39 :	32.0;	40 :	149.0;	41 :	128.0;
	42 :	74.0;	43 :	25.0;	44 :	93.0;	45 :	144.0;	46 :	44.0;
	47 :	83.0;	48 :	69.0;	49 :	155.0;	50 :	126.0;	51 :	107.0;
	52 :	39.0;	53 :	26.0;	54 :	24.0;	55 :	94.0;	56 :	126.0;
	57 :	63.0;	58 :	77.0;	59 :	57.0;	60 :	141.0;	61 :	21.0;
	62 :	80.0;	63 :	71.0;	64 :	110.0;	65 :	68.0;	66 :	100.0;
	67 :	74.0;	68 :	55.0;	69 :	99.0;	70 :	94.0;	71 :	98.0;
	72 :	37.0;

Origin  32
	37 :	156.0;	38 :	77.0;	39 :	135.0;	40 :	11.0;	41 :	66.0;
	42 :	43.0;	43 :	92.0;	44 :	1.0;	45 :	86.0;	46 :	41.0;
	47 :	18.0;	48 :	61.0;	49 :	8.0;	50 :	103.0;	51 :	67.0;
	52 :	133.0;	53 :	15.0;	54 :	144.0;	55 :	90.0;	56 :	42.0;
	57 :	111.0;	58 :	92.0;	59 :	136.0;	60 :	92.0;	61 :	17.0;
	62 :	51.0;	63 :	142.0;	64 :	53.0;	65 :	9.0;	66 :	78.0;
	67 :	155.0;	68 :	20.0;	69 :	94.0;	70 :	113.0;	71 :	71.0;
	72 :	4.0;

Origin  33
	37 :	83.0;	38 :	155.0;	39 :	49.0;	40 :	5.0;	41 :	40.0;
	42 :	50.0;	43 :	79.0;	44 :	17.0;	45 :	147.0;	46 :	35.0;
	47 :	132.0;	48 :	133.0;	49 :	93.0;	50 :	30.0;	51 :	39.0;
	52 :	47.0;	53 :	150.0;	54 :	60.0;	55 :	154.0;	56 :	154.0;
	57 :	132.0;	58 :	86.0;	59 :	155.0;	60 :	68.0;	61 :	85.0;
	62 :	54.0;	63 :	153.0;	64 :	143.0;	65 :	105.0;	66 :	146.0;
	67 :	26.0;	68 :	15.0;	69 :	96.0;	70 :	15.0;	71 :	72.0;
	72 :	40.0;

Origin  34
	37 :	147.0;	38 :	40.0;	39 :	114.0;	40 :	92.0;	41 :	14.0;
	42 :	103.0;	43 :	50.0;	44 :	68.0;	45 :	87.0;	46 :	61.0;
	47 :	40.0;	48 :	30.0;	49 :	6.0;	50 :	116.0;	51 :	6.0;
	52 :	95.0;	53 :	134.0;	54 :	46.0;	55 :	31.0;	56 :	107.0;
	57 :	110.0;	58 :	51.0;	59 :	73.0;	60 :	78.0;	61 :	41.0;
	62 :	48.0;	63 :	84.0;	64 :	46.0;	65 :	124.0;	66 :	34.0;
	67 :	59.0;	68 :	27.0;	69 :	22.0;	70 :	118.0;	71 :	102.0;
	72 :	130.0;

Origin  35
	37 :	115.0;	38 :	89.0;	39 :	36.0;	40 :	119.0;	41 :	138.0;
	42 :	143.0;	43 :	44.0;	44 :	135.0;	45 :	139.0;	46 :	146.0;
	47 :	51.0;	48 :	147.0;	49 :	54.0;	50 :	147.0;	51 :	97.0;
	52 :	137.0;	53 :	109.0;	54 :	40.0;	55 :	89.0;	56 :	138.0;
	57 :	6.0;	58 :	59.0;	59 :	9.0;	60 :	27.0;	61 :	98.0;
	62 :	69.0;	63 :	52.0;	64 :	88.0;	65 :	53.0;	66 :	64.0;
	67 :	50.0;	68 :	12.0;	69 :	68.0;	70 :	33.0;	71 :	43.0;
	72 :	117.0;

Origin  36
	37 :	72.0;	38 :	154.0;	39 :	6.0;	40 :	69.0;	41 :	66.0;
	42 :	104.0;	43 :	30.0;	44 :	128.0;	45 :	109.0;	46 :	137.0;
	47 :	147.0;	48 :	55.0;	49 :	149.0;	50 :	95.0;	51 :	39.0;
	52 :	31.0;	53 :	49.0;	54 :	137.0;	55 :	28.0;	56 :	10.0;
	57 :	84.0;	58 :	111.0;	59 :	140.0;	60 :	36.0;	61 :	61.0;
	62 :	67.0;	63 :	144.0;	64 :	118.0;	65 :	125.0;	66 :	76.0;
	67 :	45.0;	68 :	135.0;	69 :	39.0;	70 :	67.0;	71 :	37.0;
	72 :	4.0;