<NUMBER OF ZONES> 2
<TOTAL OD FLOW> 0
<END OF METADATA>


Origin  1
4 :	10.0;