<NUMBER OF ZONES> 50
<NUMBER OF NODES> 500
<FIRST THRU NODE> 1
<NUMBER OF LINKS> 760
<ORIGINAL HEADER> 
<END OF METADATA>


~	init_node	term_node	capacity	free_flow_time	original_link	time	;
	1	27	3360.0	5.0	0	0	;
	1	31	1988.0	5.0	1	0	;
	2	28	4864.0	5.0	2	0	;
	2	32	2118.0	5.0	3	0	;
	3	29	3502.0	5.0	4	0	;
	3	33	2757.0	5.0	5	0	;
	4	30	1277.0	5.0	6	0	;
	4	34	2156.0	5.0	7	0	;
	5	35	2192.0	5.0	8	0	;
	6	32	1876.0	5.0	9	0	;
	6	36	4694.0	5.0	10	0	;
	7	33	4010.0	5.0	11	0	;
	7	37	4412.0	5.0	12	0	;
	8	34	4598.0	5.0	13	0	;
	8	38	2301.0	5.0	14	0	;
	9	35	4558.0	5.0	15	0	;
	9	39	4060.0	5.0	16	0	;
	10	40	3434.0	5.0	17	0	;
	11	37	3481.0	5.0	18	0	;
	11	41	4166.0	5.0	19	0	;
	12	38	4655.0	5.0	20	0	;
	12	42	2352.0	5.0	21	0	;
	13	39	1155.0	5.0	22	0	;
	13	43	4378.0	5.0	23	0	;
	14	40	2708.0	5.0	24	0	;
	14	44	3420.0	5.0	25	0	;
	15	45	3786.0	5.0	26	0	;
	16	42	1963.0	5.0	27	0	;
	16	46	3225.0	5.0	28	0	;
	17	43	1554.0	5.0	29	0	;
	17	47	1061.0	5.0	30	0	;
	18	44	3636.0	5.0	31	0	;
	18	48	2628.0	5.0	32	0	;
	19	45	1616.0	5.0	33	0	;
	19	49	3126.0	5.0	34	0	;
	20	50	4000.0	5.0	35	0	;
	21	47	4314.0	5.0	36	0	;
	22	48	1544.0	5.0	37	0	;
	23	49	2249.0	5.0	38	0	;
	24	50	3746.0	5.0	39	0	;
	26	52	3360.0	5.0	0	1	;
	26	56	1988.0	5.0	1	1	;
	27	53	4864.0	5.0	2	1	;
	27	57	2118.0	5.0	3	1	;
	28	54	3502.0	5.0	4	1	;
	28	58	2757.0	5.0	5	1	;
	29	55	1277.0	5.0	6	1	;
	29	59	2156.0	5.0	7	1	;
	30	60	2192.0	5.0	8	1	;
	31	57	1876.0	5.0	9	1	;
	31	61	4694.0	5.0	10	1	;
	32	58	4010.0	5.0	11	1	;
	32	62	4412.0	5.0	12	1	;
	33	59	4598.0	5.0	13	1	;
	33	63	2301.0	5.0	14	1	;
	34	60	4558.0	5.0	15	1	;
	34	64	4060.0	5.0	16	1	;
	35	65	3434.0	5.0	17	1	;
	36	62	3481.0	5.0	18	1	;
	36	66	4166.0	5.0	19	1	;
	37	63	4655.0	5.0	20	1	;
	37	67	2352.0	5.0	21	1	;
	38	64	1155.0	5.0	22	1	;
	38	68	4378.0	5.0	23	1	;
	39	65	2708.0	5.0	24	1	;
	39	69	3420.0	5.0	25	1	;
	40	70	3786.0	5.0	26	1	;
	41	67	1963.0	5.0	27	1	;
	41	71	3225.0	5.0	28	1	;
	42	68	1554.0	5.0	29	1	;
	42	72	1061.0	5.0	30	1	;
	43	69	3636.0	5.0	31	1	;
	43	73	2628.0	5.0	32	1	;
	44	70	1616.0	5.0	33	1	;
	44	74	3126.0	5.0	34	1	;
	45	75	4000.0	5.0	35	1	;
	46	72	4314.0	5.0	36	1	;
	47	73	1544.0	5.0	37	1	;
	48	74	2249.0	5.0	38	1	;
	49	75	3746.0	5.0	39	1	;
	51	77	3360.0	5.0	0	2	;
	51	81	1988.0	5.0	1	2	;
	52	78	4864.0	5.0	2	2	;
	52	82	2118.0	5.0	3	2	;
	53	79	3502.0	5.0	4	2	;
	53	83	2757.0	5.0	5	2	;
	54	80	1277.0	5.0	6	2	;
	54	84	2156.0	5.0	7	2	;
	55	85	2192.0	5.0	8	2	;
	56	82	1876.0	5.0	9	2	;
	56	86	4694.0	5.0	10	2	;
	57	83	4010.0	5.0	11	2	;
	57	87	4412.0	5.0	12	2	;
	58	84	4598.0	5.0	13	2	;
	58	88	2301.0	5.0	14	2	;
	59	85	4558.0	5.0	15	2	;
	59	89	4060.0	5.0	16	2	;
	60	90	3434.0	5.0	17	2	;
	61	87	3481.0	5.0	18	2	;
	61	91	4166.0	5.0	19	2	;
	62	88	4655.0	5.0	20	2	;
	62	92	2352.0	5.0	21	2	;
	63	89	1155.0	5.0	22	2	;
	63	93	4378.0	5.0	23	2	;
	64	90	2708.0	5.0	24	2	;
	64	94	3420.0	5.0	25	2	;
	65	95	3786.0	5.0	26	2	;
	66	92	1963.0	5.0	27	2	;
	66	96	3225.0	5.0	28	2	;
	67	93	1554.0	5.0	29	2	;
	67	97	1061.0	5.0	30	2	;
	68	94	3636.0	5.0	31	2	;
	68	98	2628.0	5.0	32	2	;
	69	95	1616.0	5.0	33	2	;
	69	99	3126.0	5.0	34	2	;
	70	100	4000.0	5.0	35	2	;
	71	97	4314.0	5.0	36	2	;
	72	98	1544.0	5.0	37	2	;
	73	99	2249.0	5.0	38	2	;
	74	100	3746.0	5.0	39	2	;
	76	102	3360.0	5.0	0	3	;
	76	106	1988.0	5.0	1	3	;
	77	103	4864.0	5.0	2	3	;
	77	107	2118.0	5.0	3	3	;
	78	104	3502.0	5.0	4	3	;
	78	108	2757.0	5.0	5	3	;
	79	105	1277.0	5.0	6	3	;
	79	109	2156.0	5.0	7	3	;
	80	110	2192.0	5.0	8	3	;
	81	107	1876.0	5.0	9	3	;
	81	111	4694.0	5.0	10	3	;
	82	108	4010.0	5.0	11	3	;
	82	112	4412.0	5.0	12	3	;
	83	109	4598.0	5.0	13	3	;
	83	113	2301.0	5.0	14	3	;
	84	110	4558.0	5.0	15	3	;
	84	114	4060.0	5.0	16	3	;
	85	115	3434.0	5.0	17	3	;
	86	112	3481.0	5.0	18	3	;
	86	116	4166.0	5.0	19	3	;
	87	113	4655.0	5.0	20	3	;
	87	117	2352.0	5.0	21	3	;
	88	114	1155.0	5.0	22	3	;
	88	118	4378.0	5.0	23	3	;
	89	115	2708.0	5.0	24	3	;
	89	119	3420.0	5.0	25	3	;
	90	120	3786.0	5.0	26	3	;
	91	117	1963.0	5.0	27	3	;
	91	121	3225.0	5.0	28	3	;
	92	118	1554.0	5.0	29	3	;
	92	122	1061.0	5.0	30	3	;
	93	119	3636.0	5.0	31	3	;
	93	123	2628.0	5.0	32	3	;
	94	120	1616.0	5.0	33	3	;
	94	124	3126.0	5.0	34	3	;
	95	125	4000.0	5.0	35	3	;
	96	122	4314.0	5.0	36	3	;
	97	123	1544.0	5.0	37	3	;
	98	124	2249.0	5.0	38	3	;
	99	125	3746.0	5.0	39	3	;
	101	127	3360.0	5.0	0	4	;
	101	131	1988.0	5.0	1	4	;
	102	128	4864.0	5.0	2	4	;
	102	132	2118.0	5.0	3	4	;
	103	129	3502.0	5.0	4	4	;
	103	133	2757.0	5.0	5	4	;
	104	130	1277.0	5.0	6	4	;
	104	134	2156.0	5.0	7	4	;
	105	135	2192.0	5.0	8	4	;
	106	132	1876.0	5.0	9	4	;
	106	136	4694.0	5.0	10	4	;
	107	133	4010.0	5.0	11	4	;
	107	137	4412.0	5.0	12	4	;
	108	134	4598.0	5.0	13	4	;
	108	138	2301.0	5.0	14	4	;
	109	135	4558.0	5.0	15	4	;
	109	139	4060.0	5.0	16	4	;
	110	140	3434.0	5.0	17	4	;
	111	137	3481.0	5.0	18	4	;
	111	141	4166.0	5.0	19	4	;
	112	138	4655.0	5.0	20	4	;
	112	142	2352.0	5.0	21	4	;
	113	139	1155.0	5.0	22	4	;
	113	143	4378.0	5.0	23	4	;
	114	140	2708.0	5.0	24	4	;
	114	144	3420.0	5.0	25	4	;
	115	145	3786.0	5.0	26	4	;
	116	142	1963.0	5.0	27	4	;
	116	146	3225.0	5.0	28	4	;
	117	143	1554.0	5.0	29	4	;
	117	147	1061.0	5.0	30	4	;
	118	144	3636.0	5.0	31	4	;
	118	148	2628.0	5.0	32	4	;
	119	145	1616.0	5.0	33	4	;
	119	149	3126.0	5.0	34	4	;
	120	150	4000.0	5.0	35	4	;
	121	147	4314.0	5.0	36	4	;
	122	148	1544.0	5.0	37	4	;
	123	149	2249.0	5.0	38	4	;
	124	150	3746.0	5.0	39	4	;
	126	152	3360.0	5.0	0	5	;
	126	156	1988.0	5.0	1	5	;
	127	153	4864.0	5.0	2	5	;
	127	157	2118.0	5.0	3	5	;
	128	154	3502.0	5.0	4	5	;
	128	158	2757.0	5.0	5	5	;
	129	155	1277.0	5.0	6	5	;
	129	159	2156.0	5.0	7	5	;
	130	160	2192.0	5.0	8	5	;
	131	157	1876.0	5.0	9	5	;
	131	161	4694.0	5.0	10	5	;
	132	158	4010.0	5.0	11	5	;
	132	162	4412.0	5.0	12	5	;
	133	159	4598.0	5.0	13	5	;
	133	163	2301.0	5.0	14	5	;
	134	160	4558.0	5.0	15	5	;
	134	164	4060.0	5.0	16	5	;
	135	165	3434.0	5.0	17	5	;
	136	162	3481.0	5.0	18	5	;
	136	166	4166.0	5.0	19	5	;
	137	163	4655.0	5.0	20	5	;
	137	167	2352.0	5.0	21	5	;
	138	164	1155.0	5.0	22	5	;
	138	168	4378.0	5.0	23	5	;
	139	165	2708.0	5.0	24	5	;
	139	169	3420.0	5.0	25	5	;
	140	170	3786.0	5.0	26	5	;
	141	167	1963.0	5.0	27	5	;
	141	171	3225.0	5.0	28	5	;
	142	168	1554.0	5.0	29	5	;
	142	172	1061.0	5.0	30	5	;
	143	169	3636.0	5.0	31	5	;
	143	173	2628.0	5.0	32	5	;
	144	170	1616.0	5.0	33	5	;
	144	174	3126.0	5.0	34	5	;
	145	175	4000.0	5.0	35	5	;
	146	172	4314.0	5.0	36	5	;
	147	173	1544.0	5.0	37	5	;
	148	174	2249.0	5.0	38	5	;
	149	175	3746.0	5.0	39	5	;
	151	177	3360.0	5.0	0	6	;
	151	181	1988.0	5.0	1	6	;
	152	178	4864.0	5.0	2	6	;
	152	182	2118.0	5.0	3	6	;
	153	179	3502.0	5.0	4	6	;
	153	183	2757.0	5.0	5	6	;
	154	180	1277.0	5.0	6	6	;
	154	184	2156.0	5.0	7	6	;
	155	185	2192.0	5.0	8	6	;
	156	182	1876.0	5.0	9	6	;
	156	186	4694.0	5.0	10	6	;
	157	183	4010.0	5.0	11	6	;
	157	187	4412.0	5.0	12	6	;
	158	184	4598.0	5.0	13	6	;
	158	188	2301.0	5.0	14	6	;
	159	185	4558.0	5.0	15	6	;
	159	189	4060.0	5.0	16	6	;
	160	190	3434.0	5.0	17	6	;
	161	187	3481.0	5.0	18	6	;
	161	191	4166.0	5.0	19	6	;
	162	188	4655.0	5.0	20	6	;
	162	192	2352.0	5.0	21	6	;
	163	189	1155.0	5.0	22	6	;
	163	193	4378.0	5.0	23	6	;
	164	190	2708.0	5.0	24	6	;
	164	194	3420.0	5.0	25	6	;
	165	195	3786.0	5.0	26	6	;
	166	192	1963.0	5.0	27	6	;
	166	196	3225.0	5.0	28	6	;
	167	193	1554.0	5.0	29	6	;
	167	197	1061.0	5.0	30	6	;
	168	194	3636.0	5.0	31	6	;
	168	198	2628.0	5.0	32	6	;
	169	195	1616.0	5.0	33	6	;
	169	199	3126.0	5.0	34	6	;
	170	200	4000.0	5.0	35	6	;
	171	197	4314.0	5.0	36	6	;
	172	198	1544.0	5.0	37	6	;
	173	199	2249.0	5.0	38	6	;
	174	200	3746.0	5.0	39	6	;
	176	202	3360.0	5.0	0	7	;
	176	206	1988.0	5.0	1	7	;
	177	203	4864.0	5.0	2	7	;
	177	207	2118.0	5.0	3	7	;
	178	204	3502.0	5.0	4	7	;
	178	208	2757.0	5.0	5	7	;
	179	205	1277.0	5.0	6	7	;
	179	209	2156.0	5.0	7	7	;
	180	210	2192.0	5.0	8	7	;
	181	207	1876.0	5.0	9	7	;
	181	211	4694.0	5.0	10	7	;
	182	208	4010.0	5.0	11	7	;
	182	212	4412.0	5.0	12	7	;
	183	209	4598.0	5.0	13	7	;
	183	213	2301.0	5.0	14	7	;
	184	210	4558.0	5.0	15	7	;
	184	214	4060.0	5.0	16	7	;
	185	215	3434.0	5.0	17	7	;
	186	212	3481.0	5.0	18	7	;
	186	216	4166.0	5.0	19	7	;
	187	213	4655.0	5.0	20	7	;
	187	217	2352.0	5.0	21	7	;
	188	214	1155.0	5.0	22	7	;
	188	218	4378.0	5.0	23	7	;
	189	215	2708.0	5.0	24	7	;
	189	219	3420.0	5.0	25	7	;
	190	220	3786.0	5.0	26	7	;
	191	217	1963.0	5.0	27	7	;
	191	221	3225.0	5.0	28	7	;
	192	218	1554.0	5.0	29	7	;
	192	222	1061.0	5.0	30	7	;
	193	219	3636.0	5.0	31	7	;
	193	223	2628.0	5.0	32	7	;
	194	220	1616.0	5.0	33	7	;
	194	224	3126.0	5.0	34	7	;
	195	225	4000.0	5.0	35	7	;
	196	222	4314.0	5.0	36	7	;
	197	223	1544.0	5.0	37	7	;
	198	224	2249.0	5.0	38	7	;
	199	225	3746.0	5.0	39	7	;
	201	227	3360.0	5.0	0	8	;
	201	231	1988.0	5.0	1	8	;
	202	228	4864.0	5.0	2	8	;
	202	232	2118.0	5.0	3	8	;
	203	229	3502.0	5.0	4	8	;
	203	233	2757.0	5.0	5	8	;
	204	230	1277.0	5.0	6	8	;
	204	234	2156.0	5.0	7	8	;
	205	235	2192.0	5.0	8	8	;
	206	232	1876.0	5.0	9	8	;
	206	236	4694.0	5.0	10	8	;
	207	233	4010.0	5.0	11	8	;
	207	237	4412.0	5.0	12	8	;
	208	234	4598.0	5.0	13	8	;
	208	238	2301.0	5.0	14	8	;
	209	235	4558.0	5.0	15	8	;
	209	239	4060.0	5.0	16	8	;
	210	240	3434.0	5.0	17	8	;
	211	237	3481.0	5.0	18	8	;
	211	241	4166.0	5.0	19	8	;
	212	238	4655.0	5.0	20	8	;
	212	242	2352.0	5.0	21	8	;
	213	239	1155.0	5.0	22	8	;
	213	243	4378.0	5.0	23	8	;
	214	240	2708.0	5.0	24	8	;
	214	244	3420.0	5.0	25	8	;
	215	245	3786.0	5.0	26	8	;
	216	242	1963.0	5.0	27	8	;
	216	246	3225.0	5.0	28	8	;
	217	243	1554.0	5.0	29	8	;
	217	247	1061.0	5.0	30	8	;
	218	244	3636.0	5.0	31	8	;
	218	248	2628.0	5.0	32	8	;
	219	245	1616.0	5.0	33	8	;
	219	249	3126.0	5.0	34	8	;
	220	250	4000.0	5.0	35	8	;
	221	247	4314.0	5.0	36	8	;
	222	248	1544.0	5.0	37	8	;
	223	249	2249.0	5.0	38	8	;
	224	250	3746.0	5.0	39	8	;
	226	252	3360.0	5.0	0	9	;
	226	256	1988.0	5.0	1	9	;
	227	253	4864.0	5.0	2	9	;
	227	257	2118.0	5.0	3	9	;
	228	254	3502.0	5.0	4	9	;
	228	258	2757.0	5.0	5	9	;
	229	255	1277.0	5.0	6	9	;
	229	259	2156.0	5.0	7	9	;
	230	260	2192.0	5.0	8	9	;
	231	257	1876.0	5.0	9	9	;
	231	261	4694.0	5.0	10	9	;
	232	258	4010.0	5.0	11	9	;
	232	262	4412.0	5.0	12	9	;
	233	259	4598.0	5.0	13	9	;
	233	263	2301.0	5.0	14	9	;
	234	260	4558.0	5.0	15	9	;
	234	264	4060.0	5.0	16	9	;
	235	265	3434.0	5.0	17	9	;
	236	262	3481.0	5.0	18	9	;
	236	266	4166.0	5.0	19	9	;
	237	263	4655.0	5.0	20	9	;
	237	267	2352.0	5.0	21	9	;
	238	264	1155.0	5.0	22	9	;
	238	268	4378.0	5.0	23	9	;
	239	265	2708.0	5.0	24	9	;
	239	269	3420.0	5.0	25	9	;
	240	270	3786.0	5.0	26	9	;
	241	267	1963.0	5.0	27	9	;
	241	271	3225.0	5.0	28	9	;
	242	268	1554.0	5.0	29	9	;
	242	272	1061.0	5.0	30	9	;
	243	269	3636.0	5.0	31	9	;
	243	273	2628.0	5.0	32	9	;
	244	270	1616.0	5.0	33	9	;
	244	274	3126.0	5.0	34	9	;
	245	275	4000.0	5.0	35	9	;
	246	272	4314.0	5.0	36	9	;
	247	273	1544.0	5.0	37	9	;
	248	274	2249.0	5.0	38	9	;
	249	275	3746.0	5.0	39	9	;
	251	277	3360.0	5.0	0	10	;
	251	281	1988.0	5.0	1	10	;
	252	278	4864.0	5.0	2	10	;
	252	282	2118.0	5.0	3	10	;
	253	279	3502.0	5.0	4	10	;
	253	283	2757.0	5.0	5	10	;
	254	280	1277.0	5.0	6	10	;
	254	284	2156.0	5.0	7	10	;
	255	285	2192.0	5.0	8	10	;
	256	282	1876.0	5.0	9	10	;
	256	286	4694.0	5.0	10	10	;
	257	283	4010.0	5.0	11	10	;
	257	287	4412.0	5.0	12	10	;
	258	284	4598.0	5.0	13	10	;
	258	288	2301.0	5.0	14	10	;
	259	285	4558.0	5.0	15	10	;
	259	289	4060.0	5.0	16	10	;
	260	290	3434.0	5.0	17	10	;
	261	287	3481.0	5.0	18	10	;
	261	291	4166.0	5.0	19	10	;
	262	288	4655.0	5.0	20	10	;
	262	292	2352.0	5.0	21	10	;
	263	289	1155.0	5.0	22	10	;
	263	293	4378.0	5.0	23	10	;
	264	290	2708.0	5.0	24	10	;
	264	294	3420.0	5.0	25	10	;
	265	295	3786.0	5.0	26	10	;
	266	292	1963.0	5.0	27	10	;
	266	296	3225.0	5.0	28	10	;
	267	293	1554.0	5.0	29	10	;
	267	297	1061.0	5.0	30	10	;
	268	294	3636.0	5.0	31	10	;
	268	298	2628.0	5.0	32	10	;
	269	295	1616.0	5.0	33	10	;
	269	299	3126.0	5.0	34	10	;
	270	300	4000.0	5.0	35	10	;
	271	297	4314.0	5.0	36	10	;
	272	298	1544.0	5.0	37	10	;
	273	299	2249.0	5.0	38	10	;
	274	300	3746.0	5.0	39	10	;
	276	302	3360.0	5.0	0	11	;
	276	306	1988.0	5.0	1	11	;
	277	303	4864.0	5.0	2	11	;
	277	307	2118.0	5.0	3	11	;
	278	304	3502.0	5.0	4	11	;
	278	308	2757.0	5.0	5	11	;
	279	305	1277.0	5.0	6	11	;
	279	309	2156.0	5.0	7	11	;
	280	310	2192.0	5.0	8	11	;
	281	307	1876.0	5.0	9	11	;
	281	311	4694.0	5.0	10	11	;
	282	308	4010.0	5.0	11	11	;
	282	312	4412.0	5.0	12	11	;
	283	309	4598.0	5.0	13	11	;
	283	313	2301.0	5.0	14	11	;
	284	310	4558.0	5.0	15	11	;
	284	314	4060.0	5.0	16	11	;
	285	315	3434.0	5.0	17	11	;
	286	312	3481.0	5.0	18	11	;
	286	316	4166.0	5.0	19	11	;
	287	313	4655.0	5.0	20	11	;
	287	317	2352.0	5.0	21	11	;
	288	314	1155.0	5.0	22	11	;
	288	318	4378.0	5.0	23	11	;
	289	315	2708.0	5.0	24	11	;
	289	319	3420.0	5.0	25	11	;
	290	320	3786.0	5.0	26	11	;
	291	317	1963.0	5.0	27	11	;
	291	321	3225.0	5.0	28	11	;
	292	318	1554.0	5.0	29	11	;
	292	322	1061.0	5.0	30	11	;
	293	319	3636.0	5.0	31	11	;
	293	323	2628.0	5.0	32	11	;
	294	320	1616.0	5.0	33	11	;
	294	324	3126.0	5.0	34	11	;
	295	325	4000.0	5.0	35	11	;
	296	322	4314.0	5.0	36	11	;
	297	323	1544.0	5.0	37	11	;
	298	324	2249.0	5.0	38	11	;
	299	325	3746.0	5.0	39	11	;
	301	327	3360.0	5.0	0	12	;
	301	331	1988.0	5.0	1	12	;
	302	328	4864.0	5.0	2	12	;
	302	332	2118.0	5.0	3	12	;
	303	329	3502.0	5.0	4	12	;
	303	333	2757.0	5.0	5	12	;
	304	330	1277.0	5.0	6	12	;
	304	334	2156.0	5.0	7	12	;
	305	335	2192.0	5.0	8	12	;
	306	332	1876.0	5.0	9	12	;
	306	336	4694.0	5.0	10	12	;
	307	333	4010.0	5.0	11	12	;
	307	337	4412.0	5.0	12	12	;
	308	334	4598.0	5.0	13	12	;
	308	338	2301.0	5.0	14	12	;
	309	335	4558.0	5.0	15	12	;
	309	339	4060.0	5.0	16	12	;
	310	340	3434.0	5.0	17	12	;
	311	337	3481.0	5.0	18	12	;
	311	341	4166.0	5.0	19	12	;
	312	338	4655.0	5.0	20	12	;
	312	342	2352.0	5.0	21	12	;
	313	339	1155.0	5.0	22	12	;
	313	343	4378.0	5.0	23	12	;
	314	340	2708.0	5.0	24	12	;
	314	344	3420.0	5.0	25	12	;
	315	345	3786.0	5.0	26	12	;
	316	342	1963.0	5.0	27	12	;
	316	346	3225.0	5.0	28	12	;
	317	343	1554.0	5.0	29	12	;
	317	347	1061.0	5.0	30	12	;
	318	344	3636.0	5.0	31	12	;
	318	348	2628.0	5.0	32	12	;
	319	345	1616.0	5.0	33	12	;
	319	349	3126.0	5.0	34	12	;
	320	350	4000.0	5.0	35	12	;
	321	347	4314.0	5.0	36	12	;
	322	348	1544.0	5.0	37	12	;
	323	349	2249.0	5.0	38	12	;
	324	350	3746.0	5.0	39	12	;
	326	352	3360.0	5.0	0	13	;
	326	356	1988.0	5.0	1	13	;
	327	353	4864.0	5.0	2	13	;
	327	357	2118.0	5.0	3	13	;
	328	354	3502.0	5.0	4	13	;
	328	358	2757.0	5.0	5	13	;
	329	355	1277.0	5.0	6	13	;
	329	359	2156.0	5.0	7	13	;
	330	360	2192.0	5.0	8	13	;
	331	357	1876.0	5.0	9	13	;
	331	361	4694.0	5.0	10	13	;
	332	358	4010.0	5.0	11	13	;
	332	362	4412.0	5.0	12	13	;
	333	359	4598.0	5.0	13	13	;
	333	363	2301.0	5.0	14	13	;
	334	360	4558.0	5.0	15	13	;
	334	364	4060.0	5.0	16	13	;
	335	365	3434.0	5.0	17	13	;
	336	362	3481.0	5.0	18	13	;
	336	366	4166.0	5.0	19	13	;
	337	363	4655.0	5.0	20	13	;
	337	367	2352.0	5.0	21	13	;
	338	364	1155.0	5.0	22	13	;
	338	368	4378.0	5.0	23	13	;
	339	365	2708.0	5.0	24	13	;
	339	369	3420.0	5.0	25	13	;
	340	370	3786.0	5.0	26	13	;
	341	367	1963.0	5.0	27	13	;
	341	371	3225.0	5.0	28	13	;
	342	368	1554.0	5.0	29	13	;
	342	372	1061.0	5.0	30	13	;
	343	369	3636.0	5.0	31	13	;
	343	373	2628.0	5.0	32	13	;
	344	370	1616.0	5.0	33	13	;
	344	374	3126.0	5.0	34	13	;
	345	375	4000.0	5.0	35	13	;
	346	372	4314.0	5.0	36	13	;
	347	373	1544.0	5.0	37	13	;
	348	374	2249.0	5.0	38	13	;
	349	375	3746.0	5.0	39	13	;
	351	377	3360.0	5.0	0	14	;
	351	381	1988.0	5.0	1	14	;
	352	378	4864.0	5.0	2	14	;
	352	382	2118.0	5.0	3	14	;
	353	379	3502.0	5.0	4	14	;
	353	383	2757.0	5.0	5	14	;
	354	380	1277.0	5.0	6	14	;
	354	384	2156.0	5.0	7	14	;
	355	385	2192.0	5.0	8	14	;
	356	382	1876.0	5.0	9	14	;
	356	386	4694.0	5.0	10	14	;
	357	383	4010.0	5.0	11	14	;
	357	387	4412.0	5.0	12	14	;
	358	384	4598.0	5.0	13	14	;
	358	388	2301.0	5.0	14	14	;
	359	385	4558.0	5.0	15	14	;
	359	389	4060.0	5.0	16	14	;
	360	390	3434.0	5.0	17	14	;
	361	387	3481.0	5.0	18	14	;
	361	391	4166.0	5.0	19	14	;
	362	388	4655.0	5.0	20	14	;
	362	392	2352.0	5.0	21	14	;
	363	389	1155.0	5.0	22	14	;
	363	393	4378.0	5.0	23	14	;
	364	390	2708.0	5.0	24	14	;
	364	394	3420.0	5.0	25	14	;
	365	395	3786.0	5.0	26	14	;
	366	392	1963.0	5.0	27	14	;
	366	396	3225.0	5.0	28	14	;
	367	393	1554.0	5.0	29	14	;
	367	397	1061.0	5.0	30	14	;
	368	394	3636.0	5.0	31	14	;
	368	398	2628.0	5.0	32	14	;
	369	395	1616.0	5.0	33	14	;
	369	399	3126.0	5.0	34	14	;
	370	400	4000.0	5.0	35	14	;
	371	397	4314.0	5.0	36	14	;
	372	398	1544.0	5.0	37	14	;
	373	399	2249.0	5.0	38	14	;
	374	400	3746.0	5.0	39	14	;
	376	402	3360.0	5.0	0	15	;
	376	406	1988.0	5.0	1	15	;
	377	403	4864.0	5.0	2	15	;
	377	407	2118.0	5.0	3	15	;
	378	404	3502.0	5.0	4	15	;
	378	408	2757.0	5.0	5	15	;
	379	405	1277.0	5.0	6	15	;
	379	409	2156.0	5.0	7	15	;
	380	410	2192.0	5.0	8	15	;
	381	407	1876.0	5.0	9	15	;
	381	411	4694.0	5.0	10	15	;
	382	408	4010.0	5.0	11	15	;
	382	412	4412.0	5.0	12	15	;
	383	409	4598.0	5.0	13	15	;
	383	413	2301.0	5.0	14	15	;
	384	410	4558.0	5.0	15	15	;
	384	414	4060.0	5.0	16	15	;
	385	415	3434.0	5.0	17	15	;
	386	412	3481.0	5.0	18	15	;
	386	416	4166.0	5.0	19	15	;
	387	413	4655.0	5.0	20	15	;
	387	417	2352.0	5.0	21	15	;
	388	414	1155.0	5.0	22	15	;
	388	418	4378.0	5.0	23	15	;
	389	415	2708.0	5.0	24	15	;
	389	419	3420.0	5.0	25	15	;
	390	420	3786.0	5.0	26	15	;
	391	417	1963.0	5.0	27	15	;
	391	421	3225.0	5.0	28	15	;
	392	418	1554.0	5.0	29	15	;
	392	422	1061.0	5.0	30	15	;
	393	419	3636.0	5.0	31	15	;
	393	423	2628.0	5.0	32	15	;
	394	420	1616.0	5.0	33	15	;
	394	424	3126.0	5.0	34	15	;
	395	425	4000.0	5.0	35	15	;
	396	422	4314.0	5.0	36	15	;
	397	423	1544.0	5.0	37	15	;
	398	424	2249.0	5.0	38	15	;
	399	425	3746.0	5.0	39	15	;
	401	427	3360.0	5.0	0	16	;
	401	431	1988.0	5.0	1	16	;
	402	428	4864.0	5.0	2	16	;
	402	432	2118.0	5.0	3	16	;
	403	429	3502.0	5.0	4	16	;
	403	433	2757.0	5.0	5	16	;
	404	430	1277.0	5.0	6	16	;
	404	434	2156.0	5.0	7	16	;
	405	435	2192.0	5.0	8	16	;
	406	432	1876.0	5.0	9	16	;
	406	436	4694.0	5.0	10	16	;
	407	433	4010.0	5.0	11	16	;
	407	437	4412.0	5.0	12	16	;
	408	434	4598.0	5.0	13	16	;
	408	438	2301.0	5.0	14	16	;
	409	435	4558.0	5.0	15	16	;
	409	439	4060.0	5.0	16	16	;
	410	440	3434.0	5.0	17	16	;
	411	437	3481.0	5.0	18	16	;
	411	441	4166.0	5.0	19	16	;
	412	438	4655.0	5.0	20	16	;
	412	442	2352.0	5.0	21	16	;
	413	439	1155.0	5.0	22	16	;
	413	443	4378.0	5.0	23	16	;
	414	440	2708.0	5.0	24	16	;
	414	444	3420.0	5.0	25	16	;
	415	445	3786.0	5.0	26	16	;
	416	442	1963.0	5.0	27	16	;
	416	446	3225.0	5.0	28	16	;
	417	443	1554.0	5.0	29	16	;
	417	447	1061.0	5.0	30	16	;
	418	444	3636.0	5.0	31	16	;
	418	448	2628.0	5.0	32	16	;
	419	445	1616.0	5.0	33	16	;
	419	449	3126.0	5.0	34	16	;
	420	450	4000.0	5.0	35	16	;
	421	447	4314.0	5.0	36	16	;
	422	448	1544.0	5.0	37	16	;
	423	449	2249.0	5.0	38	16	;
	424	450	3746.0	5.0	39	16	;
	426	452	3360.0	5.0	0	17	;
	426	456	1988.0	5.0	1	17	;
	427	453	4864.0	5.0	2	17	;
	427	457	2118.0	5.0	3	17	;
	428	454	3502.0	5.0	4	17	;
	428	458	2757.0	5.0	5	17	;
	429	455	1277.0	5.0	6	17	;
	429	459	2156.0	5.0	7	17	;
	430	460	2192.0	5.0	8	17	;
	431	457	1876.0	5.0	9	17	;
	431	461	4694.0	5.0	10	17	;
	432	458	4010.0	5.0	11	17	;
	432	462	4412.0	5.0	12	17	;
	433	459	4598.0	5.0	13	17	;
	433	463	2301.0	5.0	14	17	;
	434	460	4558.0	5.0	15	17	;
	434	464	4060.0	5.0	16	17	;
	435	465	3434.0	5.0	17	17	;
	436	462	3481.0	5.0	18	17	;
	436	466	4166.0	5.0	19	17	;
	437	463	4655.0	5.0	20	17	;
	437	467	2352.0	5.0	21	17	;
	438	464	1155.0	5.0	22	17	;
	438	468	4378.0	5.0	23	17	;
	439	465	2708.0	5.0	24	17	;
	439	469	3420.0	5.0	25	17	;
	440	470	3786.0	5.0	26	17	;
	441	467	1963.0	5.0	27	17	;
	441	471	3225.0	5.0	28	17	;
	442	468	1554.0	5.0	29	17	;
	442	472	1061.0	5.0	30	17	;
	443	469	3636.0	5.0	31	17	;
	443	473	2628.0	5.0	32	17	;
	444	470	1616.0	5.0	33	17	;
	444	474	3126.0	5.0	34	17	;
	445	475	4000.0	5.0	35	17	;
	446	472	4314.0	5.0	36	17	;
	447	473	1544.0	5.0	37	17	;
	448	474	2249.0	5.0	38	17	;
	449	475	3746.0	5.0	39	17	;
	451	477	3360.0	5.0	0	18	;
	451	481	1988.0	5.0	1	18	;
	452	478	4864.0	5.0	2	18	;
	452	482	2118.0	5.0	3	18	;
	453	479	3502.0	5.0	4	18	;
	453	483	2757.0	5.0	5	18	;
	454	480	1277.0	5.0	6	18	;
	454	484	2156.0	5.0	7	18	;
	455	485	2192.0	5.0	8	18	;
	456	482	1876.0	5.0	9	18	;
	456	486	4694.0	5.0	10	18	;
	457	483	4010.0	5.0	11	18	;
	457	487	4412.0	5.0	12	18	;
	458	484	4598.0	5.0	13	18	;
	458	488	2301.0	5.0	14	18	;
	459	485	4558.0	5.0	15	18	;
	459	489	4060.0	5.0	16	18	;
	460	490	3434.0	5.0	17	18	;
	461	487	3481.0	5.0	18	18	;
	461	491	4166.0	5.0	19	18	;
	462	488	4655.0	5.0	20	18	;
	462	492	2352.0	5.0	21	18	;
	463	489	1155.0	5.0	22	18	;
	463	493	4378.0	5.0	23	18	;
	464	490	2708.0	5.0	24	18	;
	464	494	3420.0	5.0	25	18	;
	465	495	3786.0	5.0	26	18	;
	466	492	1963.0	5.0	27	18	;
	466	496	3225.0	5.0	28	18	;
	467	493	1554.0	5.0	29	18	;
	467	497	1061.0	5.0	30	18	;
	468	494	3636.0	5.0	31	18	;
	468	498	2628.0	5.0	32	18	;
	469	495	1616.0	5.0	33	18	;
	469	499	3126.0	5.0	34	18	;
	470	500	4000.0	5.0	35	18	;
	471	497	4314.0	5.0	36	18	;
	472	498	1544.0	5.0	37	18	;
	473	499	2249.0	5.0	38	18	;
	474	500	3746.0	5.0	39	18	;