<NUMBER OF ZONES> 72
<TOTAL OD FLOW> 1000.0
<END OF METADATA>



Origin  1
	37 :	86.0;	38 :	1.0;	39 :	1.0;	40 :	1.0;	41 :	0.0;
	42 :	1.0;	43 :	0.0;	44 :	1.0;	45 :	0.0;	46 :	0.0;
	47 :	2.0;	48 :	0.0;	49 :	1.0;	50 :	1.0;	51 :	1.0;
	52 :	1.0;	53 :	1.0;	54 :	0.0;	55 :	1.0;	56 :	1.0;
	57 :	1.0;	58 :	0.0;	59 :	1.0;	60 :	1.0;	61 :	1.0;
	62 :	1.0;	63 :	1.0;	64 :	1.0;	65 :	1.0;	66 :	1.0;
	67 :	1.0;	68 :	0.0;	69 :	0.0;	70 :	0.0;	71 :	1.0;
	72 :	0.0;

Origin  2
	37 :	0.0;	38 :	1.0;	39 :	0.0;	40 :	0.0;	41 :	1.0;
	42 :	1.0;	43 :	0.0;	44 :	1.0;	45 :	0.0;	46 :	1.0;
	47 :	0.0;	48 :	1.0;	49 :	0.0;	50 :	0.0;	51 :	1.0;
	52 :	1.0;	53 :	1.0;	54 :	1.0;	55 :	1.0;	56 :	1.0;
	57 :	1.0;	58 :	1.0;	59 :	1.0;	60 :	1.0;	61 :	1.0;
	62 :	0.0;	63 :	1.0;	64 :	0.0;	65 :	1.0;	66 :	1.0;
	67 :	1.0;	68 :	1.0;	69 :	1.0;	70 :	0.0;	71 :	1.0;
	72 :	1.0;

Origin  3
	37 :	1.0;	38 :	1.0;	39 :	1.0;	40 :	1.0;	41 :	1.0;
	42 :	1.0;	43 :	1.0;	44 :	1.0;	45 :	1.0;	46 :	1.0;
	47 :	1.0;	48 :	0.0;	49 :	1.0;	50 :	1.0;	51 :	1.0;
	52 :	1.0;	53 :	1.0;	54 :	0.0;	55 :	0.0;	56 :	1.0;
	57 :	1.0;	58 :	0.0;	59 :	1.0;	60 :	1.0;	61 :	0.0;
	62 :	0.0;	63 :	0.0;	64 :	0.0;	65 :	0.0;	66 :	0.0;
	67 :	1.0;	68 :	1.0;	69 :	0.0;	70 :	2.0;	71 :	1.0;
	72 :	0.0;

Origin  4
	37 :	1.0;	38 :	1.0;	39 :	0.0;	40 :	0.0;	41 :	0.0;
	42 :	1.0;	43 :	0.0;	44 :	1.0;	45 :	1.0;	46 :	1.0;
	47 :	1.0;	48 :	1.0;	49 :	1.0;	50 :	1.0;	51 :	0.0;
	52 :	1.0;	53 :	1.0;	54 :	0.0;	55 :	1.0;	56 :	1.0;
	57 :	1.0;	58 :	1.0;	59 :	1.0;	60 :	1.0;	61 :	1.0;
	62 :	0.0;	63 :	0.0;	64 :	2.0;	65 :	1.0;	66 :	1.0;
	67 :	1.0;	68 :	1.0;	69 :	2.0;	70 :	1.0;	71 :	0.0;
	72 :	1.0;

Origin  5
	37 :	1.0;	38 :	1.0;	39 :	1.0;	40 :	1.0;	41 :	1.0;
	42 :	0.0;	43 :	1.0;	44 :	1.0;	45 :	1.0;	46 :	0.0;
	47 :	2.0;	48 :	1.0;	49 :	0.0;	50 :	0.0;	51 :	1.0;
	52 :	1.0;	53 :	1.0;	54 :	0.0;	55 :	1.0;	56 :	1.0;
	57 :	0.0;	58 :	1.0;	59 :	1.0;	60 :	0.0;	61 :	1.0;
	62 :	1.0;	63 :	0.0;	64 :	1.0;	65 :	2.0;	66 :	1.0;
	67 :	1.0;	68 :	0.0;	69 :	0.0;	70 :	1.0;	71 :	0.0;
	72 :	1.0;

Origin  6
	37 :	0.0;	38 :	1.0;	39 :	1.0;	40 :	0.0;	41 :	1.0;
	42 :	1.0;	43 :	0.0;	44 :	0.0;	45 :	0.0;	46 :	0.0;
	47 :	0.0;	48 :	0.0;	49 :	1.0;	50 :	1.0;	51 :	1.0;
	52 :	1.0;	53 :	0.0;	54 :	0.0;	55 :	1.0;	56 :	1.0;
	57 :	1.0;	58 :	0.0;	59 :	0.0;	60 :	0.0;	61 :	1.0;
	62 :	1.0;	63 :	1.0;	64 :	1.0;	65 :	1.0;	66 :	0.0;
	67 :	0.0;	68 :	1.0;	69 :	1.0;	70 :	0.0;	71 :	1.0;
	72 :	1.0;

Origin  7
	37 :	1.0;	38 :	1.0;	39 :	0.0;	40 :	1.0;	41 :	1.0;
	42 :	0.0;	43 :	1.0;	44 :	0.0;	45 :	1.0;	46 :	1.0;
	47 :	1.0;	48 :	0.0;	49 :	1.0;	50 :	1.0;	51 :	1.0;
	52 :	1.0;	53 :	1.0;	54 :	1.0;	55 :	0.0;	56 :	0.0;
	57 :	1.0;	58 :	1.0;	59 :	1.0;	60 :	0.0;	61 :	1.0;
	62 :	0.0;	63 :	1.0;	64 :	1.0;	65 :	1.0;	66 :	0.0;
	67 :	1.0;	68 :	1.0;	69 :	1.0;	70 :	1.0;	71 :	1.0;
	72 :	1.0;

Origin  8
	37 :	1.0;	38 :	1.0;	39 :	1.0;	40 :	0.0;	41 :	0.0;
	42 :	2.0;	43 :	1.0;	44 :	1.0;	45 :	1.0;	46 :	1.0;
	47 :	0.0;	48 :	1.0;	49 :	1.0;	50 :	1.0;	51 :	0.0;
	52 :	0.0;	53 :	1.0;	54 :	0.0;	55 :	2.0;	56 :	1.0;
	57 :	1.0;	58 :	0.0;	59 :	0.0;	60 :	1.0;	61 :	0.0;
	62 :	1.0;	63 :	0.0;	64 :	1.0;	65 :	1.0;	66 :	1.0;
	67 :	0.0;	68 :	0.0;	69 :	1.0;	70 :	1.0;	71 :	1.0;
	72 :	1.0;

Origin  9
	37 :	1.0;	38 :	0.0;	39 :	0.0;	40 :	1.0;	41 :	0.0;
	42 :	1.0;	43 :	1.0;	44 :	1.0;	45 :	1.0;	46 :	1.0;
	47 :	1.0;	48 :	1.0;	49 :	1.0;	50 :	0.0;	51 :	1.0;
	52 :	0.0;	53 :	0.0;	54 :	0.0;	55 :	0.0;	56 :	0.0;
	57 :	1.0;	58 :	1.0;	59 :	1.0;	60 :	0.0;	61 :	1.0;
	62 :	0.0;	63 :	1.0;	64 :	1.0;	65 :	1.0;	66 :	0.0;
	67 :	1.0;	68 :	1.0;	69 :	1.0;	70 :	1.0;	71 :	1.0;
	72 :	0.0;

Origin  10
	37 :	0.0;	38 :	1.0;	39 :	0.0;	40 :	1.0;	41 :	0.0;
	42 :	1.0;	43 :	0.0;	44 :	1.0;	45 :	1.0;	46 :	1.0;
	47 :	0.0;	48 :	1.0;	49 :	0.0;	50 :	1.0;	51 :	1.0;
	52 :	0.0;	53 :	1.0;	54 :	1.0;	55 :	0.0;	56 :	1.0;
	57 :	1.0;	58 :	1.0;	59 :	1.0;	60 :	0.0;	61 :	0.0;
	62 :	1.0;	63 :	1.0;	64 :	1.0;	65 :	1.0;	66 :	1.0;
	67 :	1.0;	68 :	0.0;	69 :	1.0;	70 :	1.0;	71 :	1.0;
	72 :	1.0;

Origin  11
	37 :	1.0;	38 :	1.0;	39 :	1.0;	40 :	1.0;	41 :	0.0;
	42 :	0.0;	43 :	2.0;	44 :	1.0;	45 :	1.0;	46 :	1.0;
	47 :	1.0;	48 :	1.0;	49 :	1.0;	50 :	1.0;	51 :	1.0;
	52 :	1.0;	53 :	1.0;	54 :	2.0;	55 :	1.0;	56 :	1.0;
	57 :	1.0;	58 :	1.0;	59 :	2.0;	60 :	1.0;	61 :	1.0;
	62 :	0.0;	63 :	1.0;	64 :	1.0;	65 :	0.0;	66 :	1.0;
	67 :	0.0;	68 :	1.0;	69 :	0.0;	70 :	1.0;	71 :	1.0;
	72 :	0.0;

Origin  12
	37 :	1.0;	38 :	1.0;	39 :	1.0;	40 :	0.0;	41 :	1.0;
	42 :	1.0;	43 :	1.0;	44 :	0.0;	45 :	0.0;	46 :	0.0;
	47 :	0.0;	48 :	1.0;	49 :	1.0;	50 :	1.0;	51 :	0.0;
	52 :	1.0;	53 :	1.0;	54 :	1.0;	55 :	1.0;	56 :	0.0;
	57 :	0.0;	58 :	0.0;	59 :	0.0;	60 :	1.0;	61 :	1.0;
	62 :	1.0;	63 :	1.0;	64 :	1.0;	65 :	1.0;	66 :	1.0;
	67 :	1.0;	68 :	1.0;	69 :	1.0;	70 :	0.0;	71 :	1.0;
	72 :	1.0;

Origin  13
	37 :	1.0;	38 :	1.0;	39 :	1.0;	40 :	0.0;	41 :	0.0;
	42 :	1.0;	43 :	1.0;	44 :	0.0;	45 :	1.0;	46 :	2.0;
	47 :	1.0;	48 :	0.0;	49 :	0.0;	50 :	1.0;	51 :	1.0;
	52 :	1.0;	53 :	1.0;	54 :	0.0;	55 :	1.0;	56 :	1.0;
	57 :	0.0;	58 :	1.0;	59 :	1.0;	60 :	0.0;	61 :	1.0;
	62 :	1.0;	63 :	0.0;	64 :	0.0;	65 :	1.0;	66 :	1.0;
	67 :	1.0;	68 :	1.0;	69 :	0.0;	70 :	0.0;	71 :	1.0;
	72 :	1.0;

Origin  14
	37 :	1.0;	38 :	0.0;	39 :	0.0;	40 :	1.0;	41 :	0.0;
	42 :	0.0;	43 :	0.0;	44 :	0.0;	45 :	0.0;	46 :	0.0;
	47 :	1.0;	48 :	0.0;	49 :	0.0;	50 :	0.0;	51 :	1.0;
	52 :	1.0;	53 :	1.0;	54 :	0.0;	55 :	1.0;	56 :	0.0;
	57 :	1.0;	58 :	1.0;	59 :	1.0;	60 :	0.0;	61 :	1.0;
	62 :	1.0;	63 :	1.0;	64 :	1.0;	65 :	1.0;	66 :	1.0;
	67 :	1.0;	68 :	0.0;	69 :	1.0;	70 :	0.0;	71 :	0.0;
	72 :	1.0;

Origin  15
	37 :	1.0;	38 :	0.0;	39 :	0.0;	40 :	1.0;	41 :	1.0;
	42 :	1.0;	43 :	1.0;	44 :	0.0;	45 :	1.0;	46 :	1.0;
	47 :	1.0;	48 :	2.0;	49 :	1.0;	50 :	1.0;	51 :	1.0;
	52 :	0.0;	53 :	1.0;	54 :	1.0;	55 :	1.0;	56 :	1.0;
	57 :	1.0;	58 :	1.0;	59 :	0.0;	60 :	0.0;	61 :	1.0;
	62 :	0.0;	63 :	1.0;	64 :	1.0;	65 :	1.0;	66 :	0.0;
	67 :	1.0;	68 :	0.0;	69 :	1.0;	70 :	1.0;	71 :	1.0;
	72 :	1.0;

Origin  16
	37 :	1.0;	38 :	1.0;	39 :	1.0;	40 :	0.0;	41 :	0.0;
	42 :	0.0;	43 :	1.0;	44 :	0.0;	45 :	1.0;	46 :	1.0;
	47 :	0.0;	48 :	1.0;	49 :	1.0;	50 :	1.0;	51 :	1.0;
	52 :	0.0;	53 :	1.0;	54 :	1.0;	55 :	1.0;	56 :	1.0;
	57 :	0.0;	58 :	0.0;	59 :	1.0;	60 :	1.0;	61 :	0.0;
	62 :	1.0;	63 :	1.0;	64 :	1.0;	65 :	1.0;	66 :	1.0;
	67 :	1.0;	68 :	1.0;	69 :	1.0;	70 :	1.0;	71 :	1.0;
	72 :	0.0;

Origin  17
	37 :	0.0;	38 :	0.0;	39 :	1.0;	40 :	1.0;	41 :	0.0;
	42 :	1.0;	43 :	0.0;	44 :	0.0;	45 :	1.0;	46 :	0.0;
	47 :	1.0;	48 :	1.0;	49 :	2.0;	50 :	1.0;	51 :	1.0;
	52 :	2.0;	53 :	0.0;	54 :	0.0;	55 :	1.0;	56 :	1.0;
	57 :	1.0;	58 :	2.0;	59 :	0.0;	60 :	1.0;	61 :	1.0;
	62 :	0.0;	63 :	0.0;	64 :	1.0;	65 :	1.0;	66 :	1.0;
	67 :	0.0;	68 :	0.0;	69 :	0.0;	70 :	1.0;	71 :	1.0;
	72 :	1.0;

Origin  18
	37 :	0.0;	38 :	1.0;	39 :	1.0;	40 :	0.0;	41 :	1.0;
	42 :	1.0;	43 :	1.0;	44 :	1.0;	45 :	0.0;	46 :	1.0;
	47 :	1.0;	48 :	0.0;	49 :	1.0;	50 :	1.0;	51 :	0.0;
	52 :	0.0;	53 :	0.0;	54 :	0.0;	55 :	0.0;	56 :	0.0;
	57 :	1.0;	58 :	1.0;	59 :	1.0;	60 :	1.0;	61 :	1.0;
	62 :	1.0;	63 :	1.0;	64 :	1.0;	65 :	1.0;	66 :	1.0;
	67 :	1.0;	68 :	1.0;	69 :	1.0;	70 :	1.0;	71 :	0.0;
	72 :	0.0;

Origin  19
	37 :	1.0;	38 :	1.0;	39 :	1.0;	40 :	0.0;	41 :	1.0;
	42 :	1.0;	43 :	1.0;	44 :	1.0;	45 :	0.0;	46 :	0.0;
	47 :	1.0;	48 :	1.0;	49 :	0.0;	50 :	0.0;	51 :	0.0;
	52 :	1.0;	53 :	1.0;	54 :	1.0;	55 :	1.0;	56 :	1.0;
	57 :	0.0;	58 :	1.0;	59 :	1.0;	60 :	1.0;	61 :	1.0;
	62 :	0.0;	63 :	1.0;	64 :	2.0;	65 :	1.0;	66 :	0.0;
	67 :	1.0;	68 :	1.0;	69 :	1.0;	70 :	0.0;	71 :	1.0;
	72 :	0.0;

Origin  20
	37 :	1.0;	38 :	1.0;	39 :	1.0;	40 :	1.0;	41 :	1.0;
	42 :	0.0;	43 :	1.0;	44 :	1.0;	45 :	1.0;	46 :	1.0;
	47 :	1.0;	48 :	1.0;	49 :	0.0;	50 :	1.0;	51 :	1.0;
	52 :	1.0;	53 :	1.0;	54 :	1.0;	55 :	1.0;	56 :	1.0;
	57 :	1.0;	58 :	1.0;	59 :	0.0;	60 :	0.0;	61 :	1.0;
	62 :	1.0;	63 :	1.0;	64 :	1.0;	65 :	1.0;	66 :	1.0;
	67 :	1.0;	68 :	1.0;	69 :	1.0;	70 :	0.0;	71 :	0.0;
	72 :	1.0;

Origin  21
	37 :	1.0;	38 :	1.0;	39 :	1.0;	40 :	1.0;	41 :	0.0;
	42 :	1.0;	43 :	1.0;	44 :	1.0;	45 :	1.0;	46 :	1.0;
	47 :	1.0;	48 :	1.0;	49 :	1.0;	50 :	1.0;	51 :	0.0;
	52 :	1.0;	53 :	1.0;	54 :	0.0;	55 :	0.0;	56 :	0.0;
	57 :	0.0;	58 :	0.0;	59 :	1.0;	60 :	1.0;	61 :	1.0;
	62 :	1.0;	63 :	1.0;	64 :	1.0;	65 :	1.0;	66 :	1.0;
	67 :	1.0;	68 :	1.0;	69 :	1.0;	70 :	0.0;	71 :	1.0;
	72 :	0.0;

Origin  22
	37 :	0.0;	38 :	1.0;	39 :	0.0;	40 :	1.0;	41 :	0.0;
	42 :	1.0;	43 :	0.0;	44 :	2.0;	45 :	0.0;	46 :	1.0;
	47 :	1.0;	48 :	1.0;	49 :	1.0;	50 :	1.0;	51 :	0.0;
	52 :	1.0;	53 :	0.0;	54 :	1.0;	55 :	1.0;	56 :	1.0;
	57 :	1.0;	58 :	0.0;	59 :	1.0;	60 :	0.0;	61 :	0.0;
	62 :	0.0;	63 :	1.0;	64 :	1.0;	65 :	0.0;	66 :	1.0;
	67 :	1.0;	68 :	0.0;	69 :	0.0;	70 :	1.0;	71 :	1.0;
	72 :	1.0;

Origin  23
	37 :	0.0;	38 :	0.0;	39 :	1.0;	40 :	1.0;	41 :	1.0;
	42 :	1.0;	43 :	1.0;	44 :	1.0;	45 :	1.0;	46 :	1.0;
	47 :	1.0;	48 :	0.0;	49 :	0.0;	50 :	0.0;	51 :	1.0;
	52 :	0.0;	53 :	1.0;	54 :	1.0;	55 :	0.0;	56 :	1.0;
	57 :	1.0;	58 :	1.0;	59 :	1.0;	60 :	1.0;	61 :	0.0;
	62 :	0.0;	63 :	0.0;	64 :	2.0;	65 :	1.0;	66 :	0.0;
	67 :	1.0;	68 :	0.0;	69 :	1.0;	70 :	0.0;	71 :	0.0;
	72 :	0.0;

Origin  24
	37 :	0.0;	38 :	0.0;	39 :	0.0;	40 :	0.0;	41 :	1.0;
	42 :	1.0;	43 :	1.0;	44 :	1.0;	45 :	1.0;	46 :	0.0;
	47 :	0.0;	48 :	0.0;	49 :	0.0;	50 :	0.0;	51 :	1.0;
	52 :	0.0;	53 :	1.0;	54 :	0.0;	55 :	1.0;	56 :	0.0;
	57 :	1.0;	58 :	0.0;	59 :	1.0;	60 :	1.0;	61 :	0.0;
	62 :	1.0;	63 :	0.0;	64 :	0.0;	65 :	1.0;	66 :	1.0;
	67 :	1.0;	68 :	1.0;	69 :	1.0;	70 :	1.0;	71 :	0.0;
	72 :	1.0;

Origin  25
	37 :	1.0;	38 :	1.0;	39 :	2.0;	40 :	1.0;	41 :	1.0;
	42 :	1.0;	43 :	0.0;	44 :	0.0;	45 :	1.0;	46 :	1.0;
	47 :	1.0;	48 :	1.0;	49 :	0.0;	50 :	1.0;	51 :	0.0;
	52 :	1.0;	53 :	1.0;	54 :	1.0;	55 :	1.0;	56 :	1.0;
	57 :	1.0;	58 :	1.0;	59 :	1.0;	60 :	1.0;	61 :	1.0;
	62 :	1.0;	63 :	0.0;	64 :	0.0;	65 :	1.0;	66 :	0.0;
	67 :	0.0;	68 :	1.0;	69 :	0.0;	70 :	1.0;	71 :	1.0;
	72 :	1.0;

Origin  26
	37 :	0.0;	38 :	1.0;	39 :	2.0;	40 :	1.0;	41 :	1.0;
	42 :	0.0;	43 :	0.0;	44 :	0.0;	45 :	1.0;	46 :	0.0;
	47 :	1.0;	48 :	1.0;	49 :	1.0;	50 :	1.0;	51 :	1.0;
	52 :	0.0;	53 :	1.0;	54 :	0.0;	55 :	0.0;	56 :	1.0;
	57 :	1.0;	58 :	0.0;	59 :	1.0;	60 :	1.0;	61 :	1.0;
	62 :	1.0;	63 :	1.0;	64 :	0.0;	65 :	0.0;	66 :	2.0;
	67 :	0.0;	68 :	0.0;	69 :	1.0;	70 :	1.0;	71 :	0.0;
	72 :	1.0;

Origin  27
	37 :	1.0;	38 :	1.0;	39 :	0.0;	40 :	0.0;	41 :	1.0;
	42 :	1.0;	43 :	0.0;	44 :	1.0;	45 :	1.0;	46 :	1.0;
	47 :	1.0;	48 :	0.0;	49 :	1.0;	50 :	1.0;	51 :	0.0;
	52 :	1.0;	53 :	1.0;	54 :	0.0;	55 :	1.0;	56 :	1.0;
	57 :	0.0;	58 :	1.0;	59 :	1.0;	60 :	1.0;	61 :	1.0;
	62 :	1.0;	63 :	0.0;	64 :	1.0;	65 :	0.0;	66 :	1.0;
	67 :	1.0;	68 :	0.0;	69 :	1.0;	70 :	1.0;	71 :	0.0;
	72 :	1.0;

Origin  28
	37 :	1.0;	38 :	1.0;	39 :	1.0;	40 :	0.0;	41 :	0.0;
	42 :	0.0;	43 :	1.0;	44 :	1.0;	45 :	0.0;	46 :	2.0;
	47 :	1.0;	48 :	0.0;	49 :	0.0;	50 :	0.0;	51 :	1.0;
	52 :	0.0;	53 :	1.0;	54 :	0.0;	55 :	1.0;	56 :	1.0;
	57 :	0.0;	58 :	1.0;	59 :	1.0;	60 :	1.0;	61 :	1.0;
	62 :	1.0;	63 :	1.0;	64 :	0.0;	65 :	0.0;	66 :	1.0;
	67 :	1.0;	68 :	1.0;	69 :	1.0;	70 :	1.0;	71 :	1.0;
	72 :	1.0;

Origin  29
	37 :	1.0;	38 :	1.0;	39 :	1.0;	40 :	0.0;	41 :	1.0;
	42 :	1.0;	43 :	1.0;	44 :	0.0;	45 :	0.0;	46 :	1.0;
	47 :	1.0;	48 :	1.0;	49 :	1.0;	50 :	0.0;	51 :	0.0;
	52 :	0.0;	53 :	0.0;	54 :	0.0;	55 :	1.0;	56 :	1.0;
	57 :	1.0;	58 :	1.0;	59 :	1.0;	60 :	1.0;	61 :	0.0;
	62 :	1.0;	63 :	1.0;	64 :	1.0;	65 :	1.0;	66 :	1.0;
	67 :	0.0;	68 :	1.0;	69 :	1.0;	70 :	1.0;	71 :	0.0;
	72 :	1.0;

Origin  30
	37 :	0.0;	38 :	0.0;	39 :	1.0;	40 :	1.0;	41 :	1.0;
	42 :	1.0;	43 :	1.0;	44 :	2.0;	45 :	0.0;	46 :	1.0;
	47 :	0.0;	48 :	0.0;	49 :	0.0;	50 :	1.0;	51 :	1.0;
	52 :	2.0;	53 :	2.0;	54 :	1.0;	55 :	1.0;	56 :	1.0;
	57 :	1.0;	58 :	1.0;	59 :	0.0;	60 :	1.0;	61 :	0.0;
	62 :	0.0;	63 :	1.0;	64 :	2.0;	65 :	1.0;	66 :	0.0;
	67 :	1.0;	68 :	0.0;	69 :	0.0;	70 :	2.0;	71 :	0.0;
	72 :	0.0;

Origin  31
	37 :	1.0;	38 :	2.0;	39 :	0.0;	40 :	1.0;	41 :	0.0;
	42 :	1.0;	43 :	0.0;	44 :	0.0;	45 :	1.0;	46 :	0.0;
	47 :	1.0;	48 :	1.0;	49 :	1.0;	50 :	1.0;	51 :	0.0;
	52 :	1.0;	53 :	0.0;	54 :	1.0;	55 :	0.0;	56 :	0.0;
	57 :	1.0;	58 :	0.0;	59 :	0.0;	60 :	1.0;	61 :	0.0;
	62 :	2.0;	63 :	0.0;	64 :	1.0;	65 :	1.0;	66 :	1.0;
	67 :	1.0;	68 :	1.0;	69 :	1.0;	70 :	1.0;	71 :	0.0;
	72 :	1.0;

Origin  32
	37 :	1.0;	38 :	0.0;	39 :	1.0;	40 :	0.0;	41 :	1.0;
	42 :	1.0;	43 :	1.0;	44 :	0.0;	45 :	2.0;	46 :	0.0;
	47 :	1.0;	48 :	1.0;	49 :	0.0;	50 :	1.0;	51 :	0.0;
	52 :	2.0;	53 :	0.0;	54 :	0.0;	55 :	0.0;	56 :	1.0;
	57 :	1.0;	58 :	1.0;	59 :	0.0;	60 :	1.0;	61 :	0.0;
	62 :	0.0;	63 :	1.0;	64 :	2.0;	65 :	1.0;	66 :	0.0;
	67 :	0.0;	68 :	1.0;	69 :	1.0;	70 :	1.0;	71 :	0.0;
	72 :	1.0;

Origin  33
	37 :	0.0;	38 :	1.0;	39 :	0.0;	40 :	1.0;	41 :	1.0;
	42 :	1.0;	43 :	1.0;	44 :	2.0;	45 :	0.0;	46 :	1.0;
	47 :	1.0;	48 :	1.0;	49 :	1.0;	50 :	1.0;	51 :	0.0;
	52 :	1.0;	53 :	1.0;	54 :	1.0;	55 :	0.0;	56 :	0.0;
	57 :	0.0;	58 :	0.0;	59 :	1.0;	60 :	1.0;	61 :	1.0;
	62 :	1.0;	63 :	1.0;	64 :	1.0;	65 :	2.0;	66 :	1.0;
	67 :	0.0;	68 :	0.0;	69 :	1.0;	70 :	1.0;	71 :	2.0;
	72 :	1.0;

Origin  34
	37 :	1.0;	38 :	1.0;	39 :	0.0;	40 :	1.0;	41 :	0.0;
	42 :	1.0;	43 :	1.0;	44 :	1.0;	45 :	2.0;	46 :	1.0;
	47 :	0.0;	48 :	1.0;	49 :	1.0;	50 :	0.0;	51 :	2.0;
	52 :	1.0;	53 :	1.0;	54 :	1.0;	55 :	1.0;	56 :	1.0;
	57 :	0.0;	58 :	0.0;	59 :	0.0;	60 :	1.0;	61 :	1.0;
	62 :	1.0;	63 :	0.0;	64 :	1.0;	65 :	0.0;	66 :	1.0;
	67 :	1.0;	68 :	1.0;	69 :	1.0;	70 :	1.0;	71 :	0.0;
	72 :	1.0;

Origin  35
	37 :	1.0;	38 :	1.0;	39 :	1.0;	40 :	1.0;	41 :	1.0;
	42 :	0.0;	43 :	1.0;	44 :	0.0;	45 :	0.0;	46 :	1.0;
	47 :	1.0;	48 :	1.0;	49 :	1.0;	50 :	0.0;	51 :	1.0;
	52 :	0.0;	53 :	1.0;	54 :	1.0;	55 :	1.0;	56 :	2.0;
	57 :	0.0;	58 :	1.0;	59 :	0.0;	60 :	1.0;	61 :	1.0;
	62 :	0.0;	63 :	1.0;	64 :	0.0;	65 :	1.0;	66 :	1.0;
	67 :	1.0;	68 :	0.0;	69 :	1.0;	70 :	1.0;	71 :	0.0;
	72 :	1.0;

Origin  36
	37 :	1.0;	38 :	0.0;	39 :	0.0;	40 :	0.0;	41 :	1.0;
	42 :	0.0;	43 :	2.0;	44 :	0.0;	45 :	1.0;	46 :	1.0;
	47 :	1.0;	48 :	0.0;	49 :	1.0;	50 :	1.0;	51 :	0.0;
	52 :	1.0;	53 :	0.0;	54 :	1.0;	55 :	1.0;	56 :	1.0;
	57 :	1.0;	58 :	1.0;	59 :	1.0;	60 :	1.0;	61 :	1.0;
	62 :	0.0;	63 :	1.0;	64 :	1.0;	65 :	1.0;	66 :	1.0;
	67 :	1.0;	68 :	0.0;	69 :	1.0;	70 :	1.0;	71 :	1.0;
	72 :	0.0;