<NUMBER OF ZONES> 48
<NUMBER OF NODES> 960
<FIRST THRU NODE> 1
<NUMBER OF LINKS> 2964
<ORIGINAL HEADER> 
<END OF METADATA>


~	init_node	term_node	capacity	free_flow_time	original_link	time	;
	1	26	2590.0200640000003	6	0	0	;
	1	27	2340.347319	4	1	0	;
	2	25	2590.0200640000003	6	2	0	;
	2	30	495.8180928	5	3	0	;
	3	25	2340.347319	4	4	0	;
	3	28	1711.052372	4	5	0	;
	3	36	2340.347319	4	6	0	;
	4	29	1778.27941	2	7	0	;
	4	35	490.882673	6	8	0	;
	4	27	1711.052372	4	9	0	;
	5	28	1778.27941	2	10	0	;
	5	30	494.79954690000005	4	11	0	;
	5	33	1000.0	5	12	0	;
	6	26	495.8180928	5	13	0	;
	6	29	494.79954690000005	4	14	0	;
	6	32	489.85876460000003	2	15	0	;
	7	32	784.181131	3	16	0	;
	7	42	2340.347319	2	17	0	;
	8	40	504.58225830000003	5	18	0	;
	8	33	505.0193156	10	19	0	;
	8	30	489.85876460000003	2	20	0	;
	8	31	784.181131	3	21	0	;
	9	29	1000.0	5	22	0	;
	9	32	505.0193156	10	23	0	;
	9	34	1391.5788420000001	3	24	0	;
	10	41	499.3510694	8	25	0	;
	10	33	1391.5788420000001	3	26	0	;
	10	35	1000.0	5	27	0	;
	10	39	1351.2001550000002	6	28	0	;
	10	40	485.4917717000001	4	29	0	;
	11	28	490.882673	6	30	0	;
	11	34	1000.0	5	31	0	;
	11	36	490.882673	6	32	0	;
	11	38	487.6508287	4	33	0	;
	12	35	490.882673	6	34	0	;
	12	37	2590.0200640000003	3	35	0	;
	12	27	2340.347319	4	36	0	;
	13	48	509.1256152	4	37	0	;
	13	36	2590.0200640000003	3	38	0	;
	14	35	487.6508287	4	39	0	;
	14	39	512.7526119	5	40	0	;
	14	47	492.47906050000006	4	41	0	;
	15	34	1351.2001550000002	6	42	0	;
	15	38	512.7526119	5	43	0	;
	15	43	1456.4753150000001	3	44	0	;
	15	46	959.9180565000001	3	45	0	;
	16	42	1967.9896710000003	3	46	0	;
	16	41	522.9910063000001	2	47	0	;
	16	34	485.4917717000001	4	48	0	;
	16	32	504.58225830000003	5	49	0	;
	17	34	499.3510694	8	50	0	;
	17	40	522.9910063000001	2	51	0	;
	17	43	482.3950831	2	52	0	;
	18	31	2340.347319	2	53	0	;
	18	40	1967.9896710000003	3	54	0	;
	18	44	2340.347319	4	55	0	;
	19	44	500.26075629999997	4	56	0	;
	19	41	482.3950831	2	57	0	;
	19	39	1456.4753150000001	3	58	0	;
	20	42	2340.347319	4	59	0	;
	20	43	500.26075629999997	4	60	0	;
	20	45	505.991234	6	61	0	;
	20	46	507.56971930000003	5	62	0	;
	21	44	505.991234	6	63	0	;
	21	46	522.9910063000001	2	64	0	;
	21	48	488.5357564	3	65	0	;
	22	47	500.0	4	66	0	;
	22	45	522.9910063000001	2	67	0	;
	22	39	959.9180565000001	3	68	0	;
	22	44	507.56971930000003	5	69	0	;
	23	38	492.47906050000006	4	70	0	;
	23	46	500.0	4	71	0	;
	23	48	507.8508436	2	72	0	;
	24	45	488.5357564	3	73	0	;
	24	37	509.1256152	4	74	0	;
	24	47	507.8508436	2	75	0	;
	25	50	2590.0200640000003	6	0	1	;
	25	51	2340.347319	4	1	1	;
	26	49	2590.0200640000003	6	2	1	;
	26	54	495.8180928	5	3	1	;
	27	49	2340.347319	4	4	1	;
	27	52	1711.052372	4	5	1	;
	27	60	2340.347319	4	6	1	;
	28	53	1778.27941	2	7	1	;
	28	59	490.882673	6	8	1	;
	28	51	1711.052372	4	9	1	;
	29	52	1778.27941	2	10	1	;
	29	54	494.79954690000005	4	11	1	;
	29	57	1000.0	5	12	1	;
	30	50	495.8180928	5	13	1	;
	30	53	494.79954690000005	4	14	1	;
	30	56	489.85876460000003	2	15	1	;
	31	56	784.181131	3	16	1	;
	31	66	2340.347319	2	17	1	;
	32	64	504.58225830000003	5	18	1	;
	32	57	505.0193156	10	19	1	;
	32	54	489.85876460000003	2	20	1	;
	32	55	784.181131	3	21	1	;
	33	53	1000.0	5	22	1	;
	33	56	505.0193156	10	23	1	;
	33	58	1391.5788420000001	3	24	1	;
	34	65	499.3510694	8	25	1	;
	34	57	1391.5788420000001	3	26	1	;
	34	59	1000.0	5	27	1	;
	34	63	1351.2001550000002	6	28	1	;
	34	64	485.4917717000001	4	29	1	;
	35	52	490.882673	6	30	1	;
	35	58	1000.0	5	31	1	;
	35	60	490.882673	6	32	1	;
	35	62	487.6508287	4	33	1	;
	36	59	490.882673	6	34	1	;
	36	61	2590.0200640000003	3	35	1	;
	36	51	2340.347319	4	36	1	;
	37	72	509.1256152	4	37	1	;
	37	60	2590.0200640000003	3	38	1	;
	38	59	487.6508287	4	39	1	;
	38	63	512.7526119	5	40	1	;
	38	71	492.47906050000006	4	41	1	;
	39	58	1351.2001550000002	6	42	1	;
	39	62	512.7526119	5	43	1	;
	39	67	1456.4753150000001	3	44	1	;
	39	70	959.9180565000001	3	45	1	;
	40	66	1967.9896710000003	3	46	1	;
	40	65	522.9910063000001	2	47	1	;
	40	58	485.4917717000001	4	48	1	;
	40	56	504.58225830000003	5	49	1	;
	41	58	499.3510694	8	50	1	;
	41	64	522.9910063000001	2	51	1	;
	41	67	482.3950831	2	52	1	;
	42	55	2340.347319	2	53	1	;
	42	64	1967.9896710000003	3	54	1	;
	42	68	2340.347319	4	55	1	;
	43	68	500.26075629999997	4	56	1	;
	43	65	482.3950831	2	57	1	;
	43	63	1456.4753150000001	3	58	1	;
	44	66	2340.347319	4	59	1	;
	44	67	500.26075629999997	4	60	1	;
	44	69	505.991234	6	61	1	;
	44	70	507.56971930000003	5	62	1	;
	45	68	505.991234	6	63	1	;
	45	70	522.9910063000001	2	64	1	;
	45	72	488.5357564	3	65	1	;
	46	71	500.0	4	66	1	;
	46	69	522.9910063000001	2	67	1	;
	46	63	959.9180565000001	3	68	1	;
	46	68	507.56971930000003	5	69	1	;
	47	62	492.47906050000006	4	70	1	;
	47	70	500.0	4	71	1	;
	47	72	507.8508436	2	72	1	;
	48	69	488.5357564	3	73	1	;
	48	61	509.1256152	4	74	1	;
	48	71	507.8508436	2	75	1	;
	49	74	2590.0200640000003	6	0	2	;
	49	75	2340.347319	4	1	2	;
	50	73	2590.0200640000003	6	2	2	;
	50	78	495.8180928	5	3	2	;
	51	73	2340.347319	4	4	2	;
	51	76	1711.052372	4	5	2	;
	51	84	2340.347319	4	6	2	;
	52	77	1778.27941	2	7	2	;
	52	83	490.882673	6	8	2	;
	52	75	1711.052372	4	9	2	;
	53	76	1778.27941	2	10	2	;
	53	78	494.79954690000005	4	11	2	;
	53	81	1000.0	5	12	2	;
	54	74	495.8180928	5	13	2	;
	54	77	494.79954690000005	4	14	2	;
	54	80	489.85876460000003	2	15	2	;
	55	80	784.181131	3	16	2	;
	55	90	2340.347319	2	17	2	;
	56	88	504.58225830000003	5	18	2	;
	56	81	505.0193156	10	19	2	;
	56	78	489.85876460000003	2	20	2	;
	56	79	784.181131	3	21	2	;
	57	77	1000.0	5	22	2	;
	57	80	505.0193156	10	23	2	;
	57	82	1391.5788420000001	3	24	2	;
	58	89	499.3510694	8	25	2	;
	58	81	1391.5788420000001	3	26	2	;
	58	83	1000.0	5	27	2	;
	58	87	1351.2001550000002	6	28	2	;
	58	88	485.4917717000001	4	29	2	;
	59	76	490.882673	6	30	2	;
	59	82	1000.0	5	31	2	;
	59	84	490.882673	6	32	2	;
	59	86	487.6508287	4	33	2	;
	60	83	490.882673	6	34	2	;
	60	85	2590.0200640000003	3	35	2	;
	60	75	2340.347319	4	36	2	;
	61	96	509.1256152	4	37	2	;
	61	84	2590.0200640000003	3	38	2	;
	62	83	487.6508287	4	39	2	;
	62	87	512.7526119	5	40	2	;
	62	95	492.47906050000006	4	41	2	;
	63	82	1351.2001550000002	6	42	2	;
	63	86	512.7526119	5	43	2	;
	63	91	1456.4753150000001	3	44	2	;
	63	94	959.9180565000001	3	45	2	;
	64	90	1967.9896710000003	3	46	2	;
	64	89	522.9910063000001	2	47	2	;
	64	82	485.4917717000001	4	48	2	;
	64	80	504.58225830000003	5	49	2	;
	65	82	499.3510694	8	50	2	;
	65	88	522.9910063000001	2	51	2	;
	65	91	482.3950831	2	52	2	;
	66	79	2340.347319	2	53	2	;
	66	88	1967.9896710000003	3	54	2	;
	66	92	2340.347319	4	55	2	;
	67	92	500.26075629999997	4	56	2	;
	67	89	482.3950831	2	57	2	;
	67	87	1456.4753150000001	3	58	2	;
	68	90	2340.347319	4	59	2	;
	68	91	500.26075629999997	4	60	2	;
	68	93	505.991234	6	61	2	;
	68	94	507.56971930000003	5	62	2	;
	69	92	505.991234	6	63	2	;
	69	94	522.9910063000001	2	64	2	;
	69	96	488.5357564	3	65	2	;
	70	95	500.0	4	66	2	;
	70	93	522.9910063000001	2	67	2	;
	70	87	959.9180565000001	3	68	2	;
	70	92	507.56971930000003	5	69	2	;
	71	86	492.47906050000006	4	70	2	;
	71	94	500.0	4	71	2	;
	71	96	507.8508436	2	72	2	;
	72	93	488.5357564	3	73	2	;
	72	85	509.1256152	4	74	2	;
	72	95	507.8508436	2	75	2	;
	73	98	2590.0200640000003	6	0	3	;
	73	99	2340.347319	4	1	3	;
	74	97	2590.0200640000003	6	2	3	;
	74	102	495.8180928	5	3	3	;
	75	97	2340.347319	4	4	3	;
	75	100	1711.052372	4	5	3	;
	75	108	2340.347319	4	6	3	;
	76	101	1778.27941	2	7	3	;
	76	107	490.882673	6	8	3	;
	76	99	1711.052372	4	9	3	;
	77	100	1778.27941	2	10	3	;
	77	102	494.79954690000005	4	11	3	;
	77	105	1000.0	5	12	3	;
	78	98	495.8180928	5	13	3	;
	78	101	494.79954690000005	4	14	3	;
	78	104	489.85876460000003	2	15	3	;
	79	104	784.181131	3	16	3	;
	79	114	2340.347319	2	17	3	;
	80	112	504.58225830000003	5	18	3	;
	80	105	505.0193156	10	19	3	;
	80	102	489.85876460000003	2	20	3	;
	80	103	784.181131	3	21	3	;
	81	101	1000.0	5	22	3	;
	81	104	505.0193156	10	23	3	;
	81	106	1391.5788420000001	3	24	3	;
	82	113	499.3510694	8	25	3	;
	82	105	1391.5788420000001	3	26	3	;
	82	107	1000.0	5	27	3	;
	82	111	1351.2001550000002	6	28	3	;
	82	112	485.4917717000001	4	29	3	;
	83	100	490.882673	6	30	3	;
	83	106	1000.0	5	31	3	;
	83	108	490.882673	6	32	3	;
	83	110	487.6508287	4	33	3	;
	84	107	490.882673	6	34	3	;
	84	109	2590.0200640000003	3	35	3	;
	84	99	2340.347319	4	36	3	;
	85	120	509.1256152	4	37	3	;
	85	108	2590.0200640000003	3	38	3	;
	86	107	487.6508287	4	39	3	;
	86	111	512.7526119	5	40	3	;
	86	119	492.47906050000006	4	41	3	;
	87	106	1351.2001550000002	6	42	3	;
	87	110	512.7526119	5	43	3	;
	87	115	1456.4753150000001	3	44	3	;
	87	118	959.9180565000001	3	45	3	;
	88	114	1967.9896710000003	3	46	3	;
	88	113	522.9910063000001	2	47	3	;
	88	106	485.4917717000001	4	48	3	;
	88	104	504.58225830000003	5	49	3	;
	89	106	499.3510694	8	50	3	;
	89	112	522.9910063000001	2	51	3	;
	89	115	482.3950831	2	52	3	;
	90	103	2340.347319	2	53	3	;
	90	112	1967.9896710000003	3	54	3	;
	90	116	2340.347319	4	55	3	;
	91	116	500.26075629999997	4	56	3	;
	91	113	482.3950831	2	57	3	;
	91	111	1456.4753150000001	3	58	3	;
	92	114	2340.347319	4	59	3	;
	92	115	500.26075629999997	4	60	3	;
	92	117	505.991234	6	61	3	;
	92	118	507.56971930000003	5	62	3	;
	93	116	505.991234	6	63	3	;
	93	118	522.9910063000001	2	64	3	;
	93	120	488.5357564	3	65	3	;
	94	119	500.0	4	66	3	;
	94	117	522.9910063000001	2	67	3	;
	94	111	959.9180565000001	3	68	3	;
	94	116	507.56971930000003	5	69	3	;
	95	110	492.47906050000006	4	70	3	;
	95	118	500.0	4	71	3	;
	95	120	507.8508436	2	72	3	;
	96	117	488.5357564	3	73	3	;
	96	109	509.1256152	4	74	3	;
	96	119	507.8508436	2	75	3	;
	97	122	2590.0200640000003	6	0	4	;
	97	123	2340.347319	4	1	4	;
	98	121	2590.0200640000003	6	2	4	;
	98	126	495.8180928	5	3	4	;
	99	121	2340.347319	4	4	4	;
	99	124	1711.052372	4	5	4	;
	99	132	2340.347319	4	6	4	;
	100	125	1778.27941	2	7	4	;
	100	131	490.882673	6	8	4	;
	100	123	1711.052372	4	9	4	;
	101	124	1778.27941	2	10	4	;
	101	126	494.79954690000005	4	11	4	;
	101	129	1000.0	5	12	4	;
	102	122	495.8180928	5	13	4	;
	102	125	494.79954690000005	4	14	4	;
	102	128	489.85876460000003	2	15	4	;
	103	128	784.181131	3	16	4	;
	103	138	2340.347319	2	17	4	;
	104	136	504.58225830000003	5	18	4	;
	104	129	505.0193156	10	19	4	;
	104	126	489.85876460000003	2	20	4	;
	104	127	784.181131	3	21	4	;
	105	125	1000.0	5	22	4	;
	105	128	505.0193156	10	23	4	;
	105	130	1391.5788420000001	3	24	4	;
	106	137	499.3510694	8	25	4	;
	106	129	1391.5788420000001	3	26	4	;
	106	131	1000.0	5	27	4	;
	106	135	1351.2001550000002	6	28	4	;
	106	136	485.4917717000001	4	29	4	;
	107	124	490.882673	6	30	4	;
	107	130	1000.0	5	31	4	;
	107	132	490.882673	6	32	4	;
	107	134	487.6508287	4	33	4	;
	108	131	490.882673	6	34	4	;
	108	133	2590.0200640000003	3	35	4	;
	108	123	2340.347319	4	36	4	;
	109	144	509.1256152	4	37	4	;
	109	132	2590.0200640000003	3	38	4	;
	110	131	487.6508287	4	39	4	;
	110	135	512.7526119	5	40	4	;
	110	143	492.47906050000006	4	41	4	;
	111	130	1351.2001550000002	6	42	4	;
	111	134	512.7526119	5	43	4	;
	111	139	1456.4753150000001	3	44	4	;
	111	142	959.9180565000001	3	45	4	;
	112	138	1967.9896710000003	3	46	4	;
	112	137	522.9910063000001	2	47	4	;
	112	130	485.4917717000001	4	48	4	;
	112	128	504.58225830000003	5	49	4	;
	113	130	499.3510694	8	50	4	;
	113	136	522.9910063000001	2	51	4	;
	113	139	482.3950831	2	52	4	;
	114	127	2340.347319	2	53	4	;
	114	136	1967.9896710000003	3	54	4	;
	114	140	2340.347319	4	55	4	;
	115	140	500.26075629999997	4	56	4	;
	115	137	482.3950831	2	57	4	;
	115	135	1456.4753150000001	3	58	4	;
	116	138	2340.347319	4	59	4	;
	116	139	500.26075629999997	4	60	4	;
	116	141	505.991234	6	61	4	;
	116	142	507.56971930000003	5	62	4	;
	117	140	505.991234	6	63	4	;
	117	142	522.9910063000001	2	64	4	;
	117	144	488.5357564	3	65	4	;
	118	143	500.0	4	66	4	;
	118	141	522.9910063000001	2	67	4	;
	118	135	959.9180565000001	3	68	4	;
	118	140	507.56971930000003	5	69	4	;
	119	134	492.47906050000006	4	70	4	;
	119	142	500.0	4	71	4	;
	119	144	507.8508436	2	72	4	;
	120	141	488.5357564	3	73	4	;
	120	133	509.1256152	4	74	4	;
	120	143	507.8508436	2	75	4	;
	121	146	2590.0200640000003	6	0	5	;
	121	147	2340.347319	4	1	5	;
	122	145	2590.0200640000003	6	2	5	;
	122	150	495.8180928	5	3	5	;
	123	145	2340.347319	4	4	5	;
	123	148	1711.052372	4	5	5	;
	123	156	2340.347319	4	6	5	;
	124	149	1778.27941	2	7	5	;
	124	155	490.882673	6	8	5	;
	124	147	1711.052372	4	9	5	;
	125	148	1778.27941	2	10	5	;
	125	150	494.79954690000005	4	11	5	;
	125	153	1000.0	5	12	5	;
	126	146	495.8180928	5	13	5	;
	126	149	494.79954690000005	4	14	5	;
	126	152	489.85876460000003	2	15	5	;
	127	152	784.181131	3	16	5	;
	127	162	2340.347319	2	17	5	;
	128	160	504.58225830000003	5	18	5	;
	128	153	505.0193156	10	19	5	;
	128	150	489.85876460000003	2	20	5	;
	128	151	784.181131	3	21	5	;
	129	149	1000.0	5	22	5	;
	129	152	505.0193156	10	23	5	;
	129	154	1391.5788420000001	3	24	5	;
	130	161	499.3510694	8	25	5	;
	130	153	1391.5788420000001	3	26	5	;
	130	155	1000.0	5	27	5	;
	130	159	1351.2001550000002	6	28	5	;
	130	160	485.4917717000001	4	29	5	;
	131	148	490.882673	6	30	5	;
	131	154	1000.0	5	31	5	;
	131	156	490.882673	6	32	5	;
	131	158	487.6508287	4	33	5	;
	132	155	490.882673	6	34	5	;
	132	157	2590.0200640000003	3	35	5	;
	132	147	2340.347319	4	36	5	;
	133	168	509.1256152	4	37	5	;
	133	156	2590.0200640000003	3	38	5	;
	134	155	487.6508287	4	39	5	;
	134	159	512.7526119	5	40	5	;
	134	167	492.47906050000006	4	41	5	;
	135	154	1351.2001550000002	6	42	5	;
	135	158	512.7526119	5	43	5	;
	135	163	1456.4753150000001	3	44	5	;
	135	166	959.9180565000001	3	45	5	;
	136	162	1967.9896710000003	3	46	5	;
	136	161	522.9910063000001	2	47	5	;
	136	154	485.4917717000001	4	48	5	;
	136	152	504.58225830000003	5	49	5	;
	137	154	499.3510694	8	50	5	;
	137	160	522.9910063000001	2	51	5	;
	137	163	482.3950831	2	52	5	;
	138	151	2340.347319	2	53	5	;
	138	160	1967.9896710000003	3	54	5	;
	138	164	2340.347319	4	55	5	;
	139	164	500.26075629999997	4	56	5	;
	139	161	482.3950831	2	57	5	;
	139	159	1456.4753150000001	3	58	5	;
	140	162	2340.347319	4	59	5	;
	140	163	500.26075629999997	4	60	5	;
	140	165	505.991234	6	61	5	;
	140	166	507.56971930000003	5	62	5	;
	141	164	505.991234	6	63	5	;
	141	166	522.9910063000001	2	64	5	;
	141	168	488.5357564	3	65	5	;
	142	167	500.0	4	66	5	;
	142	165	522.9910063000001	2	67	5	;
	142	159	959.9180565000001	3	68	5	;
	142	164	507.56971930000003	5	69	5	;
	143	158	492.47906050000006	4	70	5	;
	143	166	500.0	4	71	5	;
	143	168	507.8508436	2	72	5	;
	144	165	488.5357564	3	73	5	;
	144	157	509.1256152	4	74	5	;
	144	167	507.8508436	2	75	5	;
	145	170	2590.0200640000003	6	0	6	;
	145	171	2340.347319	4	1	6	;
	146	169	2590.0200640000003	6	2	6	;
	146	174	495.8180928	5	3	6	;
	147	169	2340.347319	4	4	6	;
	147	172	1711.052372	4	5	6	;
	147	180	2340.347319	4	6	6	;
	148	173	1778.27941	2	7	6	;
	148	179	490.882673	6	8	6	;
	148	171	1711.052372	4	9	6	;
	149	172	1778.27941	2	10	6	;
	149	174	494.79954690000005	4	11	6	;
	149	177	1000.0	5	12	6	;
	150	170	495.8180928	5	13	6	;
	150	173	494.79954690000005	4	14	6	;
	150	176	489.85876460000003	2	15	6	;
	151	176	784.181131	3	16	6	;
	151	186	2340.347319	2	17	6	;
	152	184	504.58225830000003	5	18	6	;
	152	177	505.0193156	10	19	6	;
	152	174	489.85876460000003	2	20	6	;
	152	175	784.181131	3	21	6	;
	153	173	1000.0	5	22	6	;
	153	176	505.0193156	10	23	6	;
	153	178	1391.5788420000001	3	24	6	;
	154	185	499.3510694	8	25	6	;
	154	177	1391.5788420000001	3	26	6	;
	154	179	1000.0	5	27	6	;
	154	183	1351.2001550000002	6	28	6	;
	154	184	485.4917717000001	4	29	6	;
	155	172	490.882673	6	30	6	;
	155	178	1000.0	5	31	6	;
	155	180	490.882673	6	32	6	;
	155	182	487.6508287	4	33	6	;
	156	179	490.882673	6	34	6	;
	156	181	2590.0200640000003	3	35	6	;
	156	171	2340.347319	4	36	6	;
	157	192	509.1256152	4	37	6	;
	157	180	2590.0200640000003	3	38	6	;
	158	179	487.6508287	4	39	6	;
	158	183	512.7526119	5	40	6	;
	158	191	492.47906050000006	4	41	6	;
	159	178	1351.2001550000002	6	42	6	;
	159	182	512.7526119	5	43	6	;
	159	187	1456.4753150000001	3	44	6	;
	159	190	959.9180565000001	3	45	6	;
	160	186	1967.9896710000003	3	46	6	;
	160	185	522.9910063000001	2	47	6	;
	160	178	485.4917717000001	4	48	6	;
	160	176	504.58225830000003	5	49	6	;
	161	178	499.3510694	8	50	6	;
	161	184	522.9910063000001	2	51	6	;
	161	187	482.3950831	2	52	6	;
	162	175	2340.347319	2	53	6	;
	162	184	1967.9896710000003	3	54	6	;
	162	188	2340.347319	4	55	6	;
	163	188	500.26075629999997	4	56	6	;
	163	185	482.3950831	2	57	6	;
	163	183	1456.4753150000001	3	58	6	;
	164	186	2340.347319	4	59	6	;
	164	187	500.26075629999997	4	60	6	;
	164	189	505.991234	6	61	6	;
	164	190	507.56971930000003	5	62	6	;
	165	188	505.991234	6	63	6	;
	165	190	522.9910063000001	2	64	6	;
	165	192	488.5357564	3	65	6	;
	166	191	500.0	4	66	6	;
	166	189	522.9910063000001	2	67	6	;
	166	183	959.9180565000001	3	68	6	;
	166	188	507.56971930000003	5	69	6	;
	167	182	492.47906050000006	4	70	6	;
	167	190	500.0	4	71	6	;
	167	192	507.8508436	2	72	6	;
	168	189	488.5357564	3	73	6	;
	168	181	509.1256152	4	74	6	;
	168	191	507.8508436	2	75	6	;
	169	194	2590.0200640000003	6	0	7	;
	169	195	2340.347319	4	1	7	;
	170	193	2590.0200640000003	6	2	7	;
	170	198	495.8180928	5	3	7	;
	171	193	2340.347319	4	4	7	;
	171	196	1711.052372	4	5	7	;
	171	204	2340.347319	4	6	7	;
	172	197	1778.27941	2	7	7	;
	172	203	490.882673	6	8	7	;
	172	195	1711.052372	4	9	7	;
	173	196	1778.27941	2	10	7	;
	173	198	494.79954690000005	4	11	7	;
	173	201	1000.0	5	12	7	;
	174	194	495.8180928	5	13	7	;
	174	197	494.79954690000005	4	14	7	;
	174	200	489.85876460000003	2	15	7	;
	175	200	784.181131	3	16	7	;
	175	210	2340.347319	2	17	7	;
	176	208	504.58225830000003	5	18	7	;
	176	201	505.0193156	10	19	7	;
	176	198	489.85876460000003	2	20	7	;
	176	199	784.181131	3	21	7	;
	177	197	1000.0	5	22	7	;
	177	200	505.0193156	10	23	7	;
	177	202	1391.5788420000001	3	24	7	;
	178	209	499.3510694	8	25	7	;
	178	201	1391.5788420000001	3	26	7	;
	178	203	1000.0	5	27	7	;
	178	207	1351.2001550000002	6	28	7	;
	178	208	485.4917717000001	4	29	7	;
	179	196	490.882673	6	30	7	;
	179	202	1000.0	5	31	7	;
	179	204	490.882673	6	32	7	;
	179	206	487.6508287	4	33	7	;
	180	203	490.882673	6	34	7	;
	180	205	2590.0200640000003	3	35	7	;
	180	195	2340.347319	4	36	7	;
	181	216	509.1256152	4	37	7	;
	181	204	2590.0200640000003	3	38	7	;
	182	203	487.6508287	4	39	7	;
	182	207	512.7526119	5	40	7	;
	182	215	492.47906050000006	4	41	7	;
	183	202	1351.2001550000002	6	42	7	;
	183	206	512.7526119	5	43	7	;
	183	211	1456.4753150000001	3	44	7	;
	183	214	959.9180565000001	3	45	7	;
	184	210	1967.9896710000003	3	46	7	;
	184	209	522.9910063000001	2	47	7	;
	184	202	485.4917717000001	4	48	7	;
	184	200	504.58225830000003	5	49	7	;
	185	202	499.3510694	8	50	7	;
	185	208	522.9910063000001	2	51	7	;
	185	211	482.3950831	2	52	7	;
	186	199	2340.347319	2	53	7	;
	186	208	1967.9896710000003	3	54	7	;
	186	212	2340.347319	4	55	7	;
	187	212	500.26075629999997	4	56	7	;
	187	209	482.3950831	2	57	7	;
	187	207	1456.4753150000001	3	58	7	;
	188	210	2340.347319	4	59	7	;
	188	211	500.26075629999997	4	60	7	;
	188	213	505.991234	6	61	7	;
	188	214	507.56971930000003	5	62	7	;
	189	212	505.991234	6	63	7	;
	189	214	522.9910063000001	2	64	7	;
	189	216	488.5357564	3	65	7	;
	190	215	500.0	4	66	7	;
	190	213	522.9910063000001	2	67	7	;
	190	207	959.9180565000001	3	68	7	;
	190	212	507.56971930000003	5	69	7	;
	191	206	492.47906050000006	4	70	7	;
	191	214	500.0	4	71	7	;
	191	216	507.8508436	2	72	7	;
	192	213	488.5357564	3	73	7	;
	192	205	509.1256152	4	74	7	;
	192	215	507.8508436	2	75	7	;
	193	218	2590.0200640000003	6	0	8	;
	193	219	2340.347319	4	1	8	;
	194	217	2590.0200640000003	6	2	8	;
	194	222	495.8180928	5	3	8	;
	195	217	2340.347319	4	4	8	;
	195	220	1711.052372	4	5	8	;
	195	228	2340.347319	4	6	8	;
	196	221	1778.27941	2	7	8	;
	196	227	490.882673	6	8	8	;
	196	219	1711.052372	4	9	8	;
	197	220	1778.27941	2	10	8	;
	197	222	494.79954690000005	4	11	8	;
	197	225	1000.0	5	12	8	;
	198	218	495.8180928	5	13	8	;
	198	221	494.79954690000005	4	14	8	;
	198	224	489.85876460000003	2	15	8	;
	199	224	784.181131	3	16	8	;
	199	234	2340.347319	2	17	8	;
	200	232	504.58225830000003	5	18	8	;
	200	225	505.0193156	10	19	8	;
	200	222	489.85876460000003	2	20	8	;
	200	223	784.181131	3	21	8	;
	201	221	1000.0	5	22	8	;
	201	224	505.0193156	10	23	8	;
	201	226	1391.5788420000001	3	24	8	;
	202	233	499.3510694	8	25	8	;
	202	225	1391.5788420000001	3	26	8	;
	202	227	1000.0	5	27	8	;
	202	231	1351.2001550000002	6	28	8	;
	202	232	485.4917717000001	4	29	8	;
	203	220	490.882673	6	30	8	;
	203	226	1000.0	5	31	8	;
	203	228	490.882673	6	32	8	;
	203	230	487.6508287	4	33	8	;
	204	227	490.882673	6	34	8	;
	204	229	2590.0200640000003	3	35	8	;
	204	219	2340.347319	4	36	8	;
	205	240	509.1256152	4	37	8	;
	205	228	2590.0200640000003	3	38	8	;
	206	227	487.6508287	4	39	8	;
	206	231	512.7526119	5	40	8	;
	206	239	492.47906050000006	4	41	8	;
	207	226	1351.2001550000002	6	42	8	;
	207	230	512.7526119	5	43	8	;
	207	235	1456.4753150000001	3	44	8	;
	207	238	959.9180565000001	3	45	8	;
	208	234	1967.9896710000003	3	46	8	;
	208	233	522.9910063000001	2	47	8	;
	208	226	485.4917717000001	4	48	8	;
	208	224	504.58225830000003	5	49	8	;
	209	226	499.3510694	8	50	8	;
	209	232	522.9910063000001	2	51	8	;
	209	235	482.3950831	2	52	8	;
	210	223	2340.347319	2	53	8	;
	210	232	1967.9896710000003	3	54	8	;
	210	236	2340.347319	4	55	8	;
	211	236	500.26075629999997	4	56	8	;
	211	233	482.3950831	2	57	8	;
	211	231	1456.4753150000001	3	58	8	;
	212	234	2340.347319	4	59	8	;
	212	235	500.26075629999997	4	60	8	;
	212	237	505.991234	6	61	8	;
	212	238	507.56971930000003	5	62	8	;
	213	236	505.991234	6	63	8	;
	213	238	522.9910063000001	2	64	8	;
	213	240	488.5357564	3	65	8	;
	214	239	500.0	4	66	8	;
	214	237	522.9910063000001	2	67	8	;
	214	231	959.9180565000001	3	68	8	;
	214	236	507.56971930000003	5	69	8	;
	215	230	492.47906050000006	4	70	8	;
	215	238	500.0	4	71	8	;
	215	240	507.8508436	2	72	8	;
	216	237	488.5357564	3	73	8	;
	216	229	509.1256152	4	74	8	;
	216	239	507.8508436	2	75	8	;
	217	242	2590.0200640000003	6	0	9	;
	217	243	2340.347319	4	1	9	;
	218	241	2590.0200640000003	6	2	9	;
	218	246	495.8180928	5	3	9	;
	219	241	2340.347319	4	4	9	;
	219	244	1711.052372	4	5	9	;
	219	252	2340.347319	4	6	9	;
	220	245	1778.27941	2	7	9	;
	220	251	490.882673	6	8	9	;
	220	243	1711.052372	4	9	9	;
	221	244	1778.27941	2	10	9	;
	221	246	494.79954690000005	4	11	9	;
	221	249	1000.0	5	12	9	;
	222	242	495.8180928	5	13	9	;
	222	245	494.79954690000005	4	14	9	;
	222	248	489.85876460000003	2	15	9	;
	223	248	784.181131	3	16	9	;
	223	258	2340.347319	2	17	9	;
	224	256	504.58225830000003	5	18	9	;
	224	249	505.0193156	10	19	9	;
	224	246	489.85876460000003	2	20	9	;
	224	247	784.181131	3	21	9	;
	225	245	1000.0	5	22	9	;
	225	248	505.0193156	10	23	9	;
	225	250	1391.5788420000001	3	24	9	;
	226	257	499.3510694	8	25	9	;
	226	249	1391.5788420000001	3	26	9	;
	226	251	1000.0	5	27	9	;
	226	255	1351.2001550000002	6	28	9	;
	226	256	485.4917717000001	4	29	9	;
	227	244	490.882673	6	30	9	;
	227	250	1000.0	5	31	9	;
	227	252	490.882673	6	32	9	;
	227	254	487.6508287	4	33	9	;
	228	251	490.882673	6	34	9	;
	228	253	2590.0200640000003	3	35	9	;
	228	243	2340.347319	4	36	9	;
	229	264	509.1256152	4	37	9	;
	229	252	2590.0200640000003	3	38	9	;
	230	251	487.6508287	4	39	9	;
	230	255	512.7526119	5	40	9	;
	230	263	492.47906050000006	4	41	9	;
	231	250	1351.2001550000002	6	42	9	;
	231	254	512.7526119	5	43	9	;
	231	259	1456.4753150000001	3	44	9	;
	231	262	959.9180565000001	3	45	9	;
	232	258	1967.9896710000003	3	46	9	;
	232	257	522.9910063000001	2	47	9	;
	232	250	485.4917717000001	4	48	9	;
	232	248	504.58225830000003	5	49	9	;
	233	250	499.3510694	8	50	9	;
	233	256	522.9910063000001	2	51	9	;
	233	259	482.3950831	2	52	9	;
	234	247	2340.347319	2	53	9	;
	234	256	1967.9896710000003	3	54	9	;
	234	260	2340.347319	4	55	9	;
	235	260	500.26075629999997	4	56	9	;
	235	257	482.3950831	2	57	9	;
	235	255	1456.4753150000001	3	58	9	;
	236	258	2340.347319	4	59	9	;
	236	259	500.26075629999997	4	60	9	;
	236	261	505.991234	6	61	9	;
	236	262	507.56971930000003	5	62	9	;
	237	260	505.991234	6	63	9	;
	237	262	522.9910063000001	2	64	9	;
	237	264	488.5357564	3	65	9	;
	238	263	500.0	4	66	9	;
	238	261	522.9910063000001	2	67	9	;
	238	255	959.9180565000001	3	68	9	;
	238	260	507.56971930000003	5	69	9	;
	239	254	492.47906050000006	4	70	9	;
	239	262	500.0	4	71	9	;
	239	264	507.8508436	2	72	9	;
	240	261	488.5357564	3	73	9	;
	240	253	509.1256152	4	74	9	;
	240	263	507.8508436	2	75	9	;
	241	266	2590.0200640000003	6	0	10	;
	241	267	2340.347319	4	1	10	;
	242	265	2590.0200640000003	6	2	10	;
	242	270	495.8180928	5	3	10	;
	243	265	2340.347319	4	4	10	;
	243	268	1711.052372	4	5	10	;
	243	276	2340.347319	4	6	10	;
	244	269	1778.27941	2	7	10	;
	244	275	490.882673	6	8	10	;
	244	267	1711.052372	4	9	10	;
	245	268	1778.27941	2	10	10	;
	245	270	494.79954690000005	4	11	10	;
	245	273	1000.0	5	12	10	;
	246	266	495.8180928	5	13	10	;
	246	269	494.79954690000005	4	14	10	;
	246	272	489.85876460000003	2	15	10	;
	247	272	784.181131	3	16	10	;
	247	282	2340.347319	2	17	10	;
	248	280	504.58225830000003	5	18	10	;
	248	273	505.0193156	10	19	10	;
	248	270	489.85876460000003	2	20	10	;
	248	271	784.181131	3	21	10	;
	249	269	1000.0	5	22	10	;
	249	272	505.0193156	10	23	10	;
	249	274	1391.5788420000001	3	24	10	;
	250	281	499.3510694	8	25	10	;
	250	273	1391.5788420000001	3	26	10	;
	250	275	1000.0	5	27	10	;
	250	279	1351.2001550000002	6	28	10	;
	250	280	485.4917717000001	4	29	10	;
	251	268	490.882673	6	30	10	;
	251	274	1000.0	5	31	10	;
	251	276	490.882673	6	32	10	;
	251	278	487.6508287	4	33	10	;
	252	275	490.882673	6	34	10	;
	252	277	2590.0200640000003	3	35	10	;
	252	267	2340.347319	4	36	10	;
	253	288	509.1256152	4	37	10	;
	253	276	2590.0200640000003	3	38	10	;
	254	275	487.6508287	4	39	10	;
	254	279	512.7526119	5	40	10	;
	254	287	492.47906050000006	4	41	10	;
	255	274	1351.2001550000002	6	42	10	;
	255	278	512.7526119	5	43	10	;
	255	283	1456.4753150000001	3	44	10	;
	255	286	959.9180565000001	3	45	10	;
	256	282	1967.9896710000003	3	46	10	;
	256	281	522.9910063000001	2	47	10	;
	256	274	485.4917717000001	4	48	10	;
	256	272	504.58225830000003	5	49	10	;
	257	274	499.3510694	8	50	10	;
	257	280	522.9910063000001	2	51	10	;
	257	283	482.3950831	2	52	10	;
	258	271	2340.347319	2	53	10	;
	258	280	1967.9896710000003	3	54	10	;
	258	284	2340.347319	4	55	10	;
	259	284	500.26075629999997	4	56	10	;
	259	281	482.3950831	2	57	10	;
	259	279	1456.4753150000001	3	58	10	;
	260	282	2340.347319	4	59	10	;
	260	283	500.26075629999997	4	60	10	;
	260	285	505.991234	6	61	10	;
	260	286	507.56971930000003	5	62	10	;
	261	284	505.991234	6	63	10	;
	261	286	522.9910063000001	2	64	10	;
	261	288	488.5357564	3	65	10	;
	262	287	500.0	4	66	10	;
	262	285	522.9910063000001	2	67	10	;
	262	279	959.9180565000001	3	68	10	;
	262	284	507.56971930000003	5	69	10	;
	263	278	492.47906050000006	4	70	10	;
	263	286	500.0	4	71	10	;
	263	288	507.8508436	2	72	10	;
	264	285	488.5357564	3	73	10	;
	264	277	509.1256152	4	74	10	;
	264	287	507.8508436	2	75	10	;
	265	290	2590.0200640000003	6	0	11	;
	265	291	2340.347319	4	1	11	;
	266	289	2590.0200640000003	6	2	11	;
	266	294	495.8180928	5	3	11	;
	267	289	2340.347319	4	4	11	;
	267	292	1711.052372	4	5	11	;
	267	300	2340.347319	4	6	11	;
	268	293	1778.27941	2	7	11	;
	268	299	490.882673	6	8	11	;
	268	291	1711.052372	4	9	11	;
	269	292	1778.27941	2	10	11	;
	269	294	494.79954690000005	4	11	11	;
	269	297	1000.0	5	12	11	;
	270	290	495.8180928	5	13	11	;
	270	293	494.79954690000005	4	14	11	;
	270	296	489.85876460000003	2	15	11	;
	271	296	784.181131	3	16	11	;
	271	306	2340.347319	2	17	11	;
	272	304	504.58225830000003	5	18	11	;
	272	297	505.0193156	10	19	11	;
	272	294	489.85876460000003	2	20	11	;
	272	295	784.181131	3	21	11	;
	273	293	1000.0	5	22	11	;
	273	296	505.0193156	10	23	11	;
	273	298	1391.5788420000001	3	24	11	;
	274	305	499.3510694	8	25	11	;
	274	297	1391.5788420000001	3	26	11	;
	274	299	1000.0	5	27	11	;
	274	303	1351.2001550000002	6	28	11	;
	274	304	485.4917717000001	4	29	11	;
	275	292	490.882673	6	30	11	;
	275	298	1000.0	5	31	11	;
	275	300	490.882673	6	32	11	;
	275	302	487.6508287	4	33	11	;
	276	299	490.882673	6	34	11	;
	276	301	2590.0200640000003	3	35	11	;
	276	291	2340.347319	4	36	11	;
	277	312	509.1256152	4	37	11	;
	277	300	2590.0200640000003	3	38	11	;
	278	299	487.6508287	4	39	11	;
	278	303	512.7526119	5	40	11	;
	278	311	492.47906050000006	4	41	11	;
	279	298	1351.2001550000002	6	42	11	;
	279	302	512.7526119	5	43	11	;
	279	307	1456.4753150000001	3	44	11	;
	279	310	959.9180565000001	3	45	11	;
	280	306	1967.9896710000003	3	46	11	;
	280	305	522.9910063000001	2	47	11	;
	280	298	485.4917717000001	4	48	11	;
	280	296	504.58225830000003	5	49	11	;
	281	298	499.3510694	8	50	11	;
	281	304	522.9910063000001	2	51	11	;
	281	307	482.3950831	2	52	11	;
	282	295	2340.347319	2	53	11	;
	282	304	1967.9896710000003	3	54	11	;
	282	308	2340.347319	4	55	11	;
	283	308	500.26075629999997	4	56	11	;
	283	305	482.3950831	2	57	11	;
	283	303	1456.4753150000001	3	58	11	;
	284	306	2340.347319	4	59	11	;
	284	307	500.26075629999997	4	60	11	;
	284	309	505.991234	6	61	11	;
	284	310	507.56971930000003	5	62	11	;
	285	308	505.991234	6	63	11	;
	285	310	522.9910063000001	2	64	11	;
	285	312	488.5357564	3	65	11	;
	286	311	500.0	4	66	11	;
	286	309	522.9910063000001	2	67	11	;
	286	303	959.9180565000001	3	68	11	;
	286	308	507.56971930000003	5	69	11	;
	287	302	492.47906050000006	4	70	11	;
	287	310	500.0	4	71	11	;
	287	312	507.8508436	2	72	11	;
	288	309	488.5357564	3	73	11	;
	288	301	509.1256152	4	74	11	;
	288	311	507.8508436	2	75	11	;
	289	314	2590.0200640000003	6	0	12	;
	289	315	2340.347319	4	1	12	;
	290	313	2590.0200640000003	6	2	12	;
	290	318	495.8180928	5	3	12	;
	291	313	2340.347319	4	4	12	;
	291	316	1711.052372	4	5	12	;
	291	324	2340.347319	4	6	12	;
	292	317	1778.27941	2	7	12	;
	292	323	490.882673	6	8	12	;
	292	315	1711.052372	4	9	12	;
	293	316	1778.27941	2	10	12	;
	293	318	494.79954690000005	4	11	12	;
	293	321	1000.0	5	12	12	;
	294	314	495.8180928	5	13	12	;
	294	317	494.79954690000005	4	14	12	;
	294	320	489.85876460000003	2	15	12	;
	295	320	784.181131	3	16	12	;
	295	330	2340.347319	2	17	12	;
	296	328	504.58225830000003	5	18	12	;
	296	321	505.0193156	10	19	12	;
	296	318	489.85876460000003	2	20	12	;
	296	319	784.181131	3	21	12	;
	297	317	1000.0	5	22	12	;
	297	320	505.0193156	10	23	12	;
	297	322	1391.5788420000001	3	24	12	;
	298	329	499.3510694	8	25	12	;