<NUMBER OF ZONES> 8
<TOTAL OD FLOW> 1000.0
<END OF METADATA>



Origin  1
	5 :	45.04531599552029;	6 :	71.31095862737632;	7 :	20.600553629459586;	8 :	75.28335865869406;

Origin  2
	5 :	69.71324088260495;	6 :	98.12327176169975;	7 :	56.77802921547826;	8 :	67.93993766946087;

Origin  3
	5 :	72.88757227711868;	6 :	71.78484818084722;	7 :	99.63896290584411;	8 :	50.71047354100307;

Origin  4
	5 :	60.04700877006097;	6 :	32.84750329613583;	7 :	52.71197406220426;	8 :	54.5769905264918;