<NUMBER OF ZONES> 8
<TOTAL OD FLOW> 20.0
<END OF METADATA>



Origin  1
	5 :	3.1305401379045072;	6 :	16.410435188770624;	7 :	19.849613578561552;	8 :	17.71771421291458;

Origin  2
	5 :	18.88428165160095;	6 :	16.99615006627237;	7 :	5.975698048036648;	8 :	17.901385300049363;

Origin  3
	5 :	14.68372939326477;	6 :	18.962845334393577;	7 :	11.407183710048926;	8 :	5.941283988350663;

Origin  4
	5 :	10.099920485062006;	6 :	6.671094350378821;	7 :	4.759682697967833;	8 :	2.340607757546025;