<NUMBER OF ZONES> 8
<TOTAL OD FLOW> 20.0
<END OF METADATA>



Origin  1
	5 :	0.12353041795942522;	6 :	0.1649756070346121;	7 :	0.10269143181280543;	8 :	2.409993398856389;

Origin  2
	5 :	2.4490548752031414;	6 :	1.5442990667958116;	7 :	0.8152173091799012;	8 :	2.013182342027453;

Origin  3
	5 :	0.5608831402103809;	6 :	1.5444735970965418;	7 :	1.9959359835443233;	8 :	1.39211602201692;

Origin  4
	5 :	1.3175912963273793;	6 :	0.2384310262587876;	7 :	1.135953456020956;	8 :	2.1916710296551707;