<NUMBER OF ZONES> 8
<NUMBER OF NODES> 56
<FIRST THRU NODE> 1
<NUMBER OF LINKS> 141
<ORIGINAL HEADER> 
<END OF METADATA>


~	init_node	term_node	free_flow_time	original_link	time	original_TS_link	vehicle_state	link_type	price_index	;
	9	14	1.5	0	0	0	0	1	0	;
	9	15	3.0	1	0	1	0	1	0	;
	10	15	1.0	2	0	2	0	1	0	;
	10	16	5.0	3	0	3	0	1	0	;
	11	16	3.5	4	0	4	0	1	0	;
	13	18	1.5	0	1	5	0	1	0	;
	13	19	3.0	1	1	6	0	1	0	;
	14	19	1.0	2	1	7	0	1	0	;
	14	20	5.0	3	1	8	0	1	0	;
	15	20	3.5	4	1	9	0	1	0	;
	17	22	1.5	0	2	10	0	1	0	;
	17	23	3.0	1	2	11	0	1	0	;
	18	23	1.0	2	2	12	0	1	0	;
	18	24	5.0	3	2	13	0	1	0	;
	19	24	3.5	4	2	14	0	1	0	;
	25	30	2.5	0	0	0	1	1	1	;
	25	31	4.0	1	0	1	1	1	1	;
	26	31	2.0	2	0	2	1	1	1	;
	26	32	6.0	3	0	3	1	1	1	;
	27	32	4.5	4	0	4	1	1	1	;
	29	34	2.5	0	1	5	1	1	1	;
	29	35	4.0	1	1	6	1	1	1	;
	30	35	2.0	2	1	7	1	1	1	;
	30	36	6.0	3	1	8	1	1	1	;
	31	36	4.5	4	1	9	1	1	1	;
	33	38	2.5	0	2	10	1	1	1	;
	33	39	4.0	1	2	11	1	1	1	;
	34	39	2.0	2	2	12	1	1	1	;
	34	40	6.0	3	2	13	1	1	1	;
	35	40	4.5	4	2	14	1	1	1	;
	41	46	3.5	0	0	0	2	1	2	;
	41	47	5.0	1	0	1	2	1	2	;
	42	47	3.0	2	0	2	2	1	2	;
	42	48	7.0	3	0	3	2	1	2	;
	43	48	5.5	4	0	4	2	1	2	;
	45	50	3.5	0	1	5	2	1	2	;
	45	51	5.0	1	1	6	2	1	2	;
	46	51	3.0	2	1	7	2	1	2	;
	46	52	7.0	3	1	8	2	1	2	;
	47	52	5.5	4	1	9	2	1	2	;
	49	54	3.5	0	2	10	2	1	2	;
	49	55	5.0	1	2	11	2	1	2	;
	50	55	3.0	2	2	12	2	1	2	;
	50	56	7.0	3	2	13	2	1	2	;
	51	56	5.5	4	2	14	2	1	2	;
	1	5	20.0	-1	-1	-1	-1	-1	0	;
	1	6	20.0	-1	-1	-1	-1	-1	0	;
	1	7	20.0	-1	-1	-1	-1	-1	0	;
	1	8	20.0	-1	-1	-1	-1	-1	0	;
	2	5	20.0	-1	-1	-1	-1	-1	0	;
	2	6	20.0	-1	-1	-1	-1	-1	0	;
	2	7	20.0	-1	-1	-1	-1	-1	0	;
	2	8	20.0	-1	-1	-1	-1	-1	0	;
	3	5	20.0	-1	-1	-1	-1	-1	0	;
	3	6	20.0	-1	-1	-1	-1	-1	0	;
	3	7	20.0	-1	-1	-1	-1	-1	0	;
	3	8	20.0	-1	-1	-1	-1	-1	0	;
	4	5	20.0	-1	-1	-1	-1	-1	0	;
	4	6	20.0	-1	-1	-1	-1	-1	0	;
	4	7	20.0	-1	-1	-1	-1	-1	0	;
	4	8	20.0	-1	-1	-1	-1	-1	0	;
	1	9	1.0	-1	0	-1	0	-1	0	;
	2	10	1.0	-1	0	-1	0	-1	0	;
	3	11	1.0	-1	0	-1	0	-1	0	;
	4	12	1.0	-1	0	-1	0	-1	0	;
	1	13	1.0	-1	1	-1	0	-1	0	;
	2	14	1.0	-1	1	-1	0	-1	0	;
	3	15	1.0	-1	1	-1	0	-1	0	;
	4	16	1.0	-1	1	-1	0	-1	0	;
	1	17	1.0	-1	2	-1	0	-1	0	;
	2	18	1.0	-1	2	-1	0	-1	0	;
	3	19	1.0	-1	2	-1	0	-1	0	;
	4	20	1.0	-1	2	-1	0	-1	0	;
	1	21	1.0	-1	3	-1	0	-1	0	;
	2	22	1.0	-1	3	-1	0	-1	0	;
	3	23	1.0	-1	3	-1	0	-1	0	;
	4	24	1.0	-1	3	-1	0	-1	0	;
	9	5	1.0	-1	0	-1	0	-1	0	;
	10	6	1.0	-1	0	-1	0	-1	0	;
	11	7	1.0	-1	0	-1	0	-1	0	;
	12	8	1.0	-1	0	-1	0	-1	0	;
	13	5	0.5	-1	1	-1	0	-1	0	;
	14	6	0.5	-1	1	-1	0	-1	0	;
	15	7	0.5	-1	1	-1	0	-1	0	;
	16	8	0.5	-1	1	-1	0	-1	0	;
	17	5	0.0	-1	2	-1	0	-1	0	;
	18	6	0.0	-1	2	-1	0	-1	0	;
	19	7	0.0	-1	2	-1	0	-1	0	;
	20	8	0.0	-1	2	-1	0	-1	0	;
	21	5	1.0	-1	3	-1	0	-1	0	;
	22	6	1.0	-1	3	-1	0	-1	0	;
	23	7	1.0	-1	3	-1	0	-1	0	;
	24	8	1.0	-1	3	-1	0	-1	0	;
	9	29	1.0	-1	0	-1	-1	2	1	;
	10	30	1.0	-1	0	-1	-1	2	1	;
	11	31	1.0	-1	0	-1	-1	2	1	;
	12	32	1.0	-1	0	-1	-1	2	1	;
	13	33	1.0	-1	1	-1	-1	2	1	;
	14	34	1.0	-1	1	-1	-1	2	1	;
	15	35	1.0	-1	1	-1	-1	2	1	;
	16	36	1.0	-1	1	-1	-1	2	1	;
	17	37	1.0	-1	2	-1	-1	2	1	;
	18	38	1.0	-1	2	-1	-1	2	1	;
	19	39	1.0	-1	2	-1	-1	2	1	;
	20	40	1.0	-1	2	-1	-1	2	1	;
	25	45	1.0	-1	0	-1	-1	2	2	;
	26	46	1.0	-1	0	-1	-1	2	2	;
	27	47	1.0	-1	0	-1	-1	2	2	;
	28	48	1.0	-1	0	-1	-1	2	2	;
	29	49	1.0	-1	1	-1	-1	2	2	;
	30	50	1.0	-1	1	-1	-1	2	2	;
	31	51	1.0	-1	1	-1	-1	2	2	;
	32	52	1.0	-1	1	-1	-1	2	2	;
	33	53	1.0	-1	2	-1	-1	2	2	;
	34	54	1.0	-1	2	-1	-1	2	2	;
	35	55	1.0	-1	2	-1	-1	2	2	;
	36	56	1.0	-1	2	-1	-1	2	2	;
	25	13	1.0	-1	0	-1	-1	3	1	;
	26	14	1.0	-1	0	-1	-1	3	1	;
	27	15	1.0	-1	0	-1	-1	3	1	;
	28	16	1.0	-1	0	-1	-1	3	1	;
	29	17	1.0	-1	1	-1	-1	3	1	;
	30	18	1.0	-1	1	-1	-1	3	1	;
	31	19	1.0	-1	1	-1	-1	3	1	;
	32	20	1.0	-1	1	-1	-1	3	1	;
	33	21	1.0	-1	2	-1	-1	3	1	;
	34	22	1.0	-1	2	-1	-1	3	1	;
	35	23	1.0	-1	2	-1	-1	3	1	;
	36	24	1.0	-1	2	-1	-1	3	1	;
	41	29	1.0	-1	0	-1	-1	3	2	;
	42	30	1.0	-1	0	-1	-1	3	2	;
	43	31	1.0	-1	0	-1	-1	3	2	;
	44	32	1.0	-1	0	-1	-1	3	2	;
	45	33	1.0	-1	1	-1	-1	3	2	;
	46	34	1.0	-1	1	-1	-1	3	2	;
	47	35	1.0	-1	1	-1	-1	3	2	;
	48	36	1.0	-1	1	-1	-1	3	2	;
	49	37	1.0	-1	2	-1	-1	3	2	;
	50	38	1.0	-1	2	-1	-1	3	2	;
	51	39	1.0	-1	2	-1	-1	3	2	;
	52	40	1.0	-1	2	-1	-1	3	2	;