<NUMBER OF ZONES> 8
<NUMBER OF NODES> 248
<FIRST THRU NODE> 1
<NUMBER OF LINKS> 1050
<ORIGINAL HEADER> 
<END OF METADATA>


~	init_node	term_node	free_flow_time	original_link	time	original_TS_link	vehicle_state	link_type	price_index	;
	9	14	1.5	0	0	0	0	1	0	;
	9	15	3.0	1	0	1	0	1	0	;
	10	15	1.0	2	0	2	0	1	0	;
	10	16	5.0	3	0	3	0	1	0	;
	11	16	3.5	4	0	4	0	1	0	;
	10	13	1.5	5	0	5	0	1	0	;
	11	13	3.0	6	0	6	0	1	0	;
	11	14	1.0	7	0	7	0	1	0	;
	12	14	5.0	8	0	8	0	1	0	;
	12	15	3.5	9	0	9	0	1	0	;
	13	18	1.5	0	1	10	0	1	0	;
	13	19	3.0	1	1	11	0	1	0	;
	14	19	1.0	2	1	12	0	1	0	;
	14	20	5.0	3	1	13	0	1	0	;
	15	20	3.5	4	1	14	0	1	0	;
	14	17	1.5	5	1	15	0	1	0	;
	15	17	3.0	6	1	16	0	1	0	;
	15	18	1.0	7	1	17	0	1	0	;
	16	18	5.0	8	1	18	0	1	0	;
	16	19	3.5	9	1	19	0	1	0	;
	17	22	1.5	0	2	20	0	1	0	;
	17	23	3.0	1	2	21	0	1	0	;
	18	23	1.0	2	2	22	0	1	0	;
	18	24	5.0	3	2	23	0	1	0	;
	19	24	3.5	4	2	24	0	1	0	;
	18	21	1.5	5	2	25	0	1	0	;
	19	21	3.0	6	2	26	0	1	0	;
	19	22	1.0	7	2	27	0	1	0	;
	20	22	5.0	8	2	28	0	1	0	;
	20	23	3.5	9	2	29	0	1	0	;
	21	26	1.5	0	3	30	0	1	0	;
	21	27	3.0	1	3	31	0	1	0	;
	22	27	1.0	2	3	32	0	1	0	;
	22	28	5.0	3	3	33	0	1	0	;
	23	28	3.5	4	3	34	0	1	0	;
	22	25	1.5	5	3	35	0	1	0	;
	23	25	3.0	6	3	36	0	1	0	;
	23	26	1.0	7	3	37	0	1	0	;
	24	26	5.0	8	3	38	0	1	0	;
	24	27	3.5	9	3	39	0	1	0	;
	25	30	1.5	0	4	40	0	1	0	;
	25	31	3.0	1	4	41	0	1	0	;
	26	31	1.0	2	4	42	0	1	0	;
	26	32	5.0	3	4	43	0	1	0	;
	27	32	3.5	4	4	44	0	1	0	;
	26	29	1.5	5	4	45	0	1	0	;
	27	29	3.0	6	4	46	0	1	0	;
	27	30	1.0	7	4	47	0	1	0	;
	28	30	5.0	8	4	48	0	1	0	;
	28	31	3.5	9	4	49	0	1	0	;
	29	34	1.5	0	5	50	0	1	0	;
	29	35	3.0	1	5	51	0	1	0	;
	30	35	1.0	2	5	52	0	1	0	;
	30	36	5.0	3	5	53	0	1	0	;
	31	36	3.5	4	5	54	0	1	0	;
	30	33	1.5	5	5	55	0	1	0	;
	31	33	3.0	6	5	56	0	1	0	;
	31	34	1.0	7	5	57	0	1	0	;
	32	34	5.0	8	5	58	0	1	0	;
	32	35	3.5	9	5	59	0	1	0	;
	33	38	1.5	0	6	60	0	1	0	;
	33	39	3.0	1	6	61	0	1	0	;
	34	39	1.0	2	6	62	0	1	0	;
	34	40	5.0	3	6	63	0	1	0	;
	35	40	3.5	4	6	64	0	1	0	;
	34	37	1.5	5	6	65	0	1	0	;
	35	37	3.0	6	6	66	0	1	0	;
	35	38	1.0	7	6	67	0	1	0	;
	36	38	5.0	8	6	68	0	1	0	;
	36	39	3.5	9	6	69	0	1	0	;
	37	42	1.5	0	7	70	0	1	0	;
	37	43	3.0	1	7	71	0	1	0	;
	38	43	1.0	2	7	72	0	1	0	;
	38	44	5.0	3	7	73	0	1	0	;
	39	44	3.5	4	7	74	0	1	0	;
	38	41	1.5	5	7	75	0	1	0	;
	39	41	3.0	6	7	76	0	1	0	;
	39	42	1.0	7	7	77	0	1	0	;
	40	42	5.0	8	7	78	0	1	0	;
	40	43	3.5	9	7	79	0	1	0	;
	41	46	1.5	0	8	80	0	1	0	;
	41	47	3.0	1	8	81	0	1	0	;
	42	47	1.0	2	8	82	0	1	0	;
	42	48	5.0	3	8	83	0	1	0	;
	43	48	3.5	4	8	84	0	1	0	;
	42	45	1.5	5	8	85	0	1	0	;
	43	45	3.0	6	8	86	0	1	0	;
	43	46	1.0	7	8	87	0	1	0	;
	44	46	5.0	8	8	88	0	1	0	;
	44	47	3.5	9	8	89	0	1	0	;
	45	50	1.5	0	9	90	0	1	0	;
	45	51	3.0	1	9	91	0	1	0	;
	46	51	1.0	2	9	92	0	1	0	;
	46	52	5.0	3	9	93	0	1	0	;
	47	52	3.5	4	9	94	0	1	0	;
	46	49	1.5	5	9	95	0	1	0	;
	47	49	3.0	6	9	96	0	1	0	;
	47	50	1.0	7	9	97	0	1	0	;
	48	50	5.0	8	9	98	0	1	0	;
	48	51	3.5	9	9	99	0	1	0	;
	49	54	1.5	0	10	100	0	1	0	;
	49	55	3.0	1	10	101	0	1	0	;
	50	55	1.0	2	10	102	0	1	0	;
	50	56	5.0	3	10	103	0	1	0	;
	51	56	3.5	4	10	104	0	1	0	;
	50	53	1.5	5	10	105	0	1	0	;
	51	53	3.0	6	10	106	0	1	0	;
	51	54	1.0	7	10	107	0	1	0	;
	52	54	5.0	8	10	108	0	1	0	;
	52	55	3.5	9	10	109	0	1	0	;
	53	58	1.5	0	11	110	0	1	0	;
	53	59	3.0	1	11	111	0	1	0	;
	54	59	1.0	2	11	112	0	1	0	;
	54	60	5.0	3	11	113	0	1	0	;
	55	60	3.5	4	11	114	0	1	0	;
	54	57	1.5	5	11	115	0	1	0	;
	55	57	3.0	6	11	116	0	1	0	;
	55	58	1.0	7	11	117	0	1	0	;
	56	58	5.0	8	11	118	0	1	0	;
	56	59	3.5	9	11	119	0	1	0	;
	57	62	1.5	0	12	120	0	1	0	;
	57	63	3.0	1	12	121	0	1	0	;
	58	63	1.0	2	12	122	0	1	0	;
	58	64	5.0	3	12	123	0	1	0	;
	59	64	3.5	4	12	124	0	1	0	;
	58	61	1.5	5	12	125	0	1	0	;
	59	61	3.0	6	12	126	0	1	0	;
	59	62	1.0	7	12	127	0	1	0	;
	60	62	5.0	8	12	128	0	1	0	;
	60	63	3.5	9	12	129	0	1	0	;
	61	66	1.5	0	13	130	0	1	0	;
	61	67	3.0	1	13	131	0	1	0	;
	62	67	1.0	2	13	132	0	1	0	;
	62	68	5.0	3	13	133	0	1	0	;
	63	68	3.5	4	13	134	0	1	0	;
	62	65	1.5	5	13	135	0	1	0	;
	63	65	3.0	6	13	136	0	1	0	;
	63	66	1.0	7	13	137	0	1	0	;
	64	66	5.0	8	13	138	0	1	0	;
	64	67	3.5	9	13	139	0	1	0	;
	65	70	1.5	0	14	140	0	1	0	;
	65	71	3.0	1	14	141	0	1	0	;
	66	71	1.0	2	14	142	0	1	0	;
	66	72	5.0	3	14	143	0	1	0	;
	67	72	3.5	4	14	144	0	1	0	;
	66	69	1.5	5	14	145	0	1	0	;
	67	69	3.0	6	14	146	0	1	0	;
	67	70	1.0	7	14	147	0	1	0	;
	68	70	5.0	8	14	148	0	1	0	;
	68	71	3.5	9	14	149	0	1	0	;
	69	74	1.5	0	15	150	0	1	0	;
	69	75	3.0	1	15	151	0	1	0	;
	70	75	1.0	2	15	152	0	1	0	;
	70	76	5.0	3	15	153	0	1	0	;
	71	76	3.5	4	15	154	0	1	0	;
	70	73	1.5	5	15	155	0	1	0	;
	71	73	3.0	6	15	156	0	1	0	;
	71	74	1.0	7	15	157	0	1	0	;
	72	74	5.0	8	15	158	0	1	0	;
	72	75	3.5	9	15	159	0	1	0	;
	73	78	1.5	0	16	160	0	1	0	;
	73	79	3.0	1	16	161	0	1	0	;
	74	79	1.0	2	16	162	0	1	0	;
	74	80	5.0	3	16	163	0	1	0	;
	75	80	3.5	4	16	164	0	1	0	;
	74	77	1.5	5	16	165	0	1	0	;
	75	77	3.0	6	16	166	0	1	0	;
	75	78	1.0	7	16	167	0	1	0	;
	76	78	5.0	8	16	168	0	1	0	;
	76	79	3.5	9	16	169	0	1	0	;
	77	82	1.5	0	17	170	0	1	0	;
	77	83	3.0	1	17	171	0	1	0	;
	78	83	1.0	2	17	172	0	1	0	;
	78	84	5.0	3	17	173	0	1	0	;
	79	84	3.5	4	17	174	0	1	0	;
	78	81	1.5	5	17	175	0	1	0	;
	79	81	3.0	6	17	176	0	1	0	;
	79	82	1.0	7	17	177	0	1	0	;
	80	82	5.0	8	17	178	0	1	0	;
	80	83	3.5	9	17	179	0	1	0	;
	81	86	1.5	0	18	180	0	1	0	;
	81	87	3.0	1	18	181	0	1	0	;
	82	87	1.0	2	18	182	0	1	0	;
	82	88	5.0	3	18	183	0	1	0	;
	83	88	3.5	4	18	184	0	1	0	;
	82	85	1.5	5	18	185	0	1	0	;
	83	85	3.0	6	18	186	0	1	0	;
	83	86	1.0	7	18	187	0	1	0	;
	84	86	5.0	8	18	188	0	1	0	;
	84	87	3.5	9	18	189	0	1	0	;
	89	94	2.5	0	0	0	1	1	1	;
	89	95	4.0	1	0	1	1	1	1	;
	90	95	2.0	2	0	2	1	1	1	;
	90	96	6.0	3	0	3	1	1	1	;
	91	96	4.5	4	0	4	1	1	1	;
	90	93	2.5	5	0	5	1	1	1	;
	91	93	4.0	6	0	6	1	1	1	;
	91	94	2.0	7	0	7	1	1	1	;
	92	94	6.0	8	0	8	1	1	1	;
	92	95	4.5	9	0	9	1	1	1	;
	93	98	2.5	0	1	10	1	1	1	;
	93	99	4.0	1	1	11	1	1	1	;
	94	99	2.0	2	1	12	1	1	1	;
	94	100	6.0	3	1	13	1	1	1	;
	95	100	4.5	4	1	14	1	1	1	;
	94	97	2.5	5	1	15	1	1	1	;
	95	97	4.0	6	1	16	1	1	1	;
	95	98	2.0	7	1	17	1	1	1	;
	96	98	6.0	8	1	18	1	1	1	;
	96	99	4.5	9	1	19	1	1	1	;
	97	102	2.5	0	2	20	1	1	1	;
	97	103	4.0	1	2	21	1	1	1	;
	98	103	2.0	2	2	22	1	1	1	;
	98	104	6.0	3	2	23	1	1	1	;
	99	104	4.5	4	2	24	1	1	1	;
	98	101	2.5	5	2	25	1	1	1	;
	99	101	4.0	6	2	26	1	1	1	;
	99	102	2.0	7	2	27	1	1	1	;
	100	102	6.0	8	2	28	1	1	1	;
	100	103	4.5	9	2	29	1	1	1	;
	101	106	2.5	0	3	30	1	1	1	;
	101	107	4.0	1	3	31	1	1	1	;
	102	107	2.0	2	3	32	1	1	1	;
	102	108	6.0	3	3	33	1	1	1	;
	103	108	4.5	4	3	34	1	1	1	;
	102	105	2.5	5	3	35	1	1	1	;
	103	105	4.0	6	3	36	1	1	1	;
	103	106	2.0	7	3	37	1	1	1	;
	104	106	6.0	8	3	38	1	1	1	;
	104	107	4.5	9	3	39	1	1	1	;
	105	110	2.5	0	4	40	1	1	1	;
	105	111	4.0	1	4	41	1	1	1	;
	106	111	2.0	2	4	42	1	1	1	;
	106	112	6.0	3	4	43	1	1	1	;
	107	112	4.5	4	4	44	1	1	1	;
	106	109	2.5	5	4	45	1	1	1	;
	107	109	4.0	6	4	46	1	1	1	;
	107	110	2.0	7	4	47	1	1	1	;
	108	110	6.0	8	4	48	1	1	1	;
	108	111	4.5	9	4	49	1	1	1	;
	109	114	2.5	0	5	50	1	1	1	;
	109	115	4.0	1	5	51	1	1	1	;
	110	115	2.0	2	5	52	1	1	1	;
	110	116	6.0	3	5	53	1	1	1	;
	111	116	4.5	4	5	54	1	1	1	;
	110	113	2.5	5	5	55	1	1	1	;
	111	113	4.0	6	5	56	1	1	1	;
	111	114	2.0	7	5	57	1	1	1	;
	112	114	6.0	8	5	58	1	1	1	;
	112	115	4.5	9	5	59	1	1	1	;
	113	118	2.5	0	6	60	1	1	1	;
	113	119	4.0	1	6	61	1	1	1	;
	114	119	2.0	2	6	62	1	1	1	;
	114	120	6.0	3	6	63	1	1	1	;
	115	120	4.5	4	6	64	1	1	1	;
	114	117	2.5	5	6	65	1	1	1	;
	115	117	4.0	6	6	66	1	1	1	;
	115	118	2.0	7	6	67	1	1	1	;
	116	118	6.0	8	6	68	1	1	1	;
	116	119	4.5	9	6	69	1	1	1	;
	117	122	2.5	0	7	70	1	1	1	;
	117	123	4.0	1	7	71	1	1	1	;
	118	123	2.0	2	7	72	1	1	1	;
	118	124	6.0	3	7	73	1	1	1	;
	119	124	4.5	4	7	74	1	1	1	;
	118	121	2.5	5	7	75	1	1	1	;
	119	121	4.0	6	7	76	1	1	1	;
	119	122	2.0	7	7	77	1	1	1	;
	120	122	6.0	8	7	78	1	1	1	;
	120	123	4.5	9	7	79	1	1	1	;
	121	126	2.5	0	8	80	1	1	1	;
	121	127	4.0	1	8	81	1	1	1	;
	122	127	2.0	2	8	82	1	1	1	;
	122	128	6.0	3	8	83	1	1	1	;
	123	128	4.5	4	8	84	1	1	1	;
	122	125	2.5	5	8	85	1	1	1	;
	123	125	4.0	6	8	86	1	1	1	;
	123	126	2.0	7	8	87	1	1	1	;
	124	126	6.0	8	8	88	1	1	1	;
	124	127	4.5	9	8	89	1	1	1	;
	125	130	2.5	0	9	90	1	1	1	;
	125	131	4.0	1	9	91	1	1	1	;
	126	131	2.0	2	9	92	1	1	1	;
	126	132	6.0	3	9	93	1	1	1	;
	127	132	4.5	4	9	94	1	1	1	;
	126	129	2.5	5	9	95	1	1	1	;
	127	129	4.0	6	9	96	1	1	1	;
	127	130	2.0	7	9	97	1	1	1	;
	128	130	6.0	8	9	98	1	1	1	;
	128	131	4.5	9	9	99	1	1	1	;
	129	134	2.5	0	10	100	1	1	1	;
	129	135	4.0	1	10	101	1	1	1	;
	130	135	2.0	2	10	102	1	1	1	;
	130	136	6.0	3	10	103	1	1	1	;
	131	136	4.5	4	10	104	1	1	1	;
	130	133	2.5	5	10	105	1	1	1	;
	131	133	4.0	6	10	106	1	1	1	;
	131	134	2.0	7	10	107	1	1	1	;
	132	134	6.0	8	10	108	1	1	1	;
	132	135	4.5	9	10	109	1	1	1	;
	133	138	2.5	0	11	110	1	1	1	;
	133	139	4.0	1	11	111	1	1	1	;
	134	139	2.0	2	11	112	1	1	1	;
	134	140	6.0	3	11	113	1	1	1	;
	135	140	4.5	4	11	114	1	1	1	;
	134	137	2.5	5	11	115	1	1	1	;
	135	137	4.0	6	11	116	1	1	1	;
	135	138	2.0	7	11	117	1	1	1	;
	136	138	6.0	8	11	118	1	1	1	;
	136	139	4.5	9	11	119	1	1	1	;
	137	142	2.5	0	12	120	1	1	1	;
	137	143	4.0	1	12	121	1	1	1	;
	138	143	2.0	2	12	122	1	1	1	;
	138	144	6.0	3	12	123	1	1	1	;
	139	144	4.5	4	12	124	1	1	1	;
	138	141	2.5	5	12	125	1	1	1	;
	139	141	4.0	6	12	126	1	1	1	;
	139	142	2.0	7	12	127	1	1	1	;
	140	142	6.0	8	12	128	1	1	1	;
	140	143	4.5	9	12	129	1	1	1	;
	141	146	2.5	0	13	130	1	1	1	;
	141	147	4.0	1	13	131	1	1	1	;
	142	147	2.0	2	13	132	1	1	1	;
	142	148	6.0	3	13	133	1	1	1	;
	143	148	4.5	4	13	134	1	1	1	;
	142	145	2.5	5	13	135	1	1	1	;
	143	145	4.0	6	13	136	1	1	1	;
	143	146	2.0	7	13	137	1	1	1	;
	144	146	6.0	8	13	138	1	1	1	;
	144	147	4.5	9	13	139	1	1	1	;
	145	150	2.5	0	14	140	1	1	1	;
	145	151	4.0	1	14	141	1	1	1	;
	146	151	2.0	2	14	142	1	1	1	;
	146	152	6.0	3	14	143	1	1	1	;
	147	152	4.5	4	14	144	1	1	1	;
	146	149	2.5	5	14	145	1	1	1	;
	147	149	4.0	6	14	146	1	1	1	;
	147	150	2.0	7	14	147	1	1	1	;
	148	150	6.0	8	14	148	1	1	1	;
	148	151	4.5	9	14	149	1	1	1	;
	149	154	2.5	0	15	150	1	1	1	;
	149	155	4.0	1	15	151	1	1	1	;
	150	155	2.0	2	15	152	1	1	1	;
	150	156	6.0	3	15	153	1	1	1	;
	151	156	4.5	4	15	154	1	1	1	;
	150	153	2.5	5	15	155	1	1	1	;
	151	153	4.0	6	15	156	1	1	1	;
	151	154	2.0	7	15	157	1	1	1	;
	152	154	6.0	8	15	158	1	1	1	;
	152	155	4.5	9	15	159	1	1	1	;
	153	158	2.5	0	16	160	1	1	1	;
	153	159	4.0	1	16	161	1	1	1	;
	154	159	2.0	2	16	162	1	1	1	;
	154	160	6.0	3	16	163	1	1	1	;
	155	160	4.5	4	16	164	1	1	1	;
	154	157	2.5	5	16	165	1	1	1	;
	155	157	4.0	6	16	166	1	1	1	;
	155	158	2.0	7	16	167	1	1	1	;
	156	158	6.0	8	16	168	1	1	1	;
	156	159	4.5	9	16	169	1	1	1	;
	157	162	2.5	0	17	170	1	1	1	;
	157	163	4.0	1	17	171	1	1	1	;
	158	163	2.0	2	17	172	1	1	1	;
	158	164	6.0	3	17	173	1	1	1	;
	159	164	4.5	4	17	174	1	1	1	;
	158	161	2.5	5	17	175	1	1	1	;
	159	161	4.0	6	17	176	1	1	1	;
	159	162	2.0	7	17	177	1	1	1	;
	160	162	6.0	8	17	178	1	1	1	;
	160	163	4.5	9	17	179	1	1	1	;
	161	166	2.5	0	18	180	1	1	1	;
	161	167	4.0	1	18	181	1	1	1	;
	162	167	2.0	2	18	182	1	1	1	;
	162	168	6.0	3	18	183	1	1	1	;
	163	168	4.5	4	18	184	1	1	1	;
	162	165	2.5	5	18	185	1	1	1	;
	163	165	4.0	6	18	186	1	1	1	;
	163	166	2.0	7	18	187	1	1	1	;
	164	166	6.0	8	18	188	1	1	1	;
	164	167	4.5	9	18	189	1	1	1	;
	169	174	3.5	0	0	0	2	1	2	;
	169	175	5.0	1	0	1	2	1	2	;
	170	175	3.0	2	0	2	2	1	2	;
	170	176	7.0	3	0	3	2	1	2	;
	171	176	5.5	4	0	4	2	1	2	;
	170	173	3.5	5	0	5	2	1	2	;
	171	173	5.0	6	0	6	2	1	2	;
	171	174	3.0	7	0	7	2	1	2	;
	172	174	7.0	8	0	8	2	1	2	;
	172	175	5.5	9	0	9	2	1	2	;
	173	178	3.5	0	1	10	2	1	2	;
	173	179	5.0	1	1	11	2	1	2	;
	174	179	3.0	2	1	12	2	1	2	;
	174	180	7.0	3	1	13	2	1	2	;
	175	180	5.5	4	1	14	2	1	2	;
	174	177	3.5	5	1	15	2	1	2	;
	175	177	5.0	6	1	16	2	1	2	;
	175	178	3.0	7	1	17	2	1	2	;
	176	178	7.0	8	1	18	2	1	2	;
	176	179	5.5	9	1	19	2	1	2	;
	177	182	3.5	0	2	20	2	1	2	;
	177	183	5.0	1	2	21	2	1	2	;
	178	183	3.0	2	2	22	2	1	2	;
	178	184	7.0	3	2	23	2	1	2	;
	179	184	5.5	4	2	24	2	1	2	;
	178	181	3.5	5	2	25	2	1	2	;
	179	181	5.0	6	2	26	2	1	2	;
	179	182	3.0	7	2	27	2	1	2	;
	180	182	7.0	8	2	28	2	1	2	;
	180	183	5.5	9	2	29	2	1	2	;
	181	186	3.5	0	3	30	2	1	2	;
	181	187	5.0	1	3	31	2	1	2	;
	182	187	3.0	2	3	32	2	1	2	;
	182	188	7.0	3	3	33	2	1	2	;
	183	188	5.5	4	3	34	2	1	2	;
	182	185	3.5	5	3	35	2	1	2	;
	183	185	5.0	6	3	36	2	1	2	;
	183	186	3.0	7	3	37	2	1	2	;
	184	186	7.0	8	3	38	2	1	2	;
	184	187	5.5	9	3	39	2	1	2	;
	185	190	3.5	0	4	40	2	1	2	;
	185	191	5.0	1	4	41	2	1	2	;
	186	191	3.0	2	4	42	2	1	2	;
	186	192	7.0	3	4	43	2	1	2	;
	187	192	5.5	4	4	44	2	1	2	;
	186	189	3.5	5	4	45	2	1	2	;
	187	189	5.0	6	4	46	2	1	2	;
	187	190	3.0	7	4	47	2	1	2	;
	188	190	7.0	8	4	48	2	1	2	;
	188	191	5.5	9	4	49	2	1	2	;
	189	194	3.5	0	5	50	2	1	2	;
	189	195	5.0	1	5	51	2	1	2	;
	190	195	3.0	2	5	52	2	1	2	;
	190	196	7.0	3	5	53	2	1	2	;
	191	196	5.5	4	5	54	2	1	2	;
	190	193	3.5	5	5	55	2	1	2	;
	191	193	5.0	6	5	56	2	1	2	;
	191	194	3.0	7	5	57	2	1	2	;
	192	194	7.0	8	5	58	2	1	2	;
	192	195	5.5	9	5	59	2	1	2	;
	193	198	3.5	0	6	60	2	1	2	;
	193	199	5.0	1	6	61	2	1	2	;
	194	199	3.0	2	6	62	2	1	2	;
	194	200	7.0	3	6	63	2	1	2	;
	195	200	5.5	4	6	64	2	1	2	;
	194	197	3.5	5	6	65	2	1	2	;
	195	197	5.0	6	6	66	2	1	2	;
	195	198	3.0	7	6	67	2	1	2	;
	196	198	7.0	8	6	68	2	1	2	;
	196	199	5.5	9	6	69	2	1	2	;
	197	202	3.5	0	7	70	2	1	2	;
	197	203	5.0	1	7	71	2	1	2	;
	198	203	3.0	2	7	72	2	1	2	;
	198	204	7.0	3	7	73	2	1	2	;
	199	204	5.5	4	7	74	2	1	2	;
	198	201	3.5	5	7	75	2	1	2	;
	199	201	5.0	6	7	76	2	1	2	;
	199	202	3.0	7	7	77	2	1	2	;
	200	202	7.0	8	7	78	2	1	2	;
	200	203	5.5	9	7	79	2	1	2	;
	201	206	3.5	0	8	80	2	1	2	;
	201	207	5.0	1	8	81	2	1	2	;
	202	207	3.0	2	8	82	2	1	2	;
	202	208	7.0	3	8	83	2	1	2	;
	203	208	5.5	4	8	84	2	1	2	;
	202	205	3.5	5	8	85	2	1	2	;
	203	205	5.0	6	8	86	2	1	2	;
	203	206	3.0	7	8	87	2	1	2	;
	204	206	7.0	8	8	88	2	1	2	;
	204	207	5.5	9	8	89	2	1	2	;
	205	210	3.5	0	9	90	2	1	2	;
	205	211	5.0	1	9	91	2	1	2	;
	206	211	3.0	2	9	92	2	1	2	;
	206	212	7.0	3	9	93	2	1	2	;
	207	212	5.5	4	9	94	2	1	2	;
	206	209	3.5	5	9	95	2	1	2	;
	207	209	5.0	6	9	96	2	1	2	;
	207	210	3.0	7	9	97	2	1	2	;
	208	210	7.0	8	9	98	2	1	2	;
	208	211	5.5	9	9	99	2	1	2	;
	209	214	3.5	0	10	100	2	1	2	;
	209	215	5.0	1	10	101	2	1	2	;
	210	215	3.0	2	10	102	2	1	2	;
	210	216	7.0	3	10	103	2	1	2	;
	211	216	5.5	4	10	104	2	1	2	;
	210	213	3.5	5	10	105	2	1	2	;
	211	213	5.0	6	10	106	2	1	2	;
	211	214	3.0	7	10	107	2	1	2	;
	212	214	7.0	8	10	108	2	1	2	;
	212	215	5.5	9	10	109	2	1	2	;
	213	218	3.5	0	11	110	2	1	2	;
	213	219	5.0	1	11	111	2	1	2	;
	214	219	3.0	2	11	112	2	1	2	;
	214	220	7.0	3	11	113	2	1	2	;
	215	220	5.5	4	11	114	2	1	2	;
	214	217	3.5	5	11	115	2	1	2	;
	215	217	5.0	6	11	116	2	1	2	;
	215	218	3.0	7	11	117	2	1	2	;
	216	218	7.0	8	11	118	2	1	2	;
	216	219	5.5	9	11	119	2	1	2	;
	217	222	3.5	0	12	120	2	1	2	;
	217	223	5.0	1	12	121	2	1	2	;
	218	223	3.0	2	12	122	2	1	2	;
	218	224	7.0	3	12	123	2	1	2	;
	219	224	5.5	4	12	124	2	1	2	;
	218	221	3.5	5	12	125	2	1	2	;
	219	221	5.0	6	12	126	2	1	2	;
	219	222	3.0	7	12	127	2	1	2	;
	220	222	7.0	8	12	128	2	1	2	;
	220	223	5.5	9	12	129	2	1	2	;
	221	226	3.5	0	13	130	2	1	2	;
	221	227	5.0	1	13	131	2	1	2	;
	222	227	3.0	2	13	132	2	1	2	;
	222	228	7.0	3	13	133	2	1	2	;
	223	228	5.5	4	13	134	2	1	2	;
	222	225	3.5	5	13	135	2	1	2	;
	223	225	5.0	6	13	136	2	1	2	;
	223	226	3.0	7	13	137	2	1	2	;
	224	226	7.0	8	13	138	2	1	2	;
	224	227	5.5	9	13	139	2	1	2	;
	225	230	3.5	0	14	140	2	1	2	;
	225	231	5.0	1	14	141	2	1	2	;
	226	231	3.0	2	14	142	2	1	2	;
	226	232	7.0	3	14	143	2	1	2	;
	227	232	5.5	4	14	144	2	1	2	;
	226	229	3.5	5	14	145	2	1	2	;
	227	229	5.0	6	14	146	2	1	2	;
	227	230	3.0	7	14	147	2	1	2	;
	228	230	7.0	8	14	148	2	1	2	;
	228	231	5.5	9	14	149	2	1	2	;
	229	234	3.5	0	15	150	2	1	2	;
	229	235	5.0	1	15	151	2	1	2	;
	230	235	3.0	2	15	152	2	1	2	;
	230	236	7.0	3	15	153	2	1	2	;
	231	236	5.5	4	15	154	2	1	2	;
	230	233	3.5	5	15	155	2	1	2	;
	231	233	5.0	6	15	156	2	1	2	;
	231	234	3.0	7	15	157	2	1	2	;
	232	234	7.0	8	15	158	2	1	2	;
	232	235	5.5	9	15	159	2	1	2	;
	233	238	3.5	0	16	160	2	1	2	;
	233	239	5.0	1	16	161	2	1	2	;
	234	239	3.0	2	16	162	2	1	2	;
	234	240	7.0	3	16	163	2	1	2	;
	235	240	5.5	4	16	164	2	1	2	;
	234	237	3.5	5	16	165	2	1	2	;
	235	237	5.0	6	16	166	2	1	2	;
	235	238	3.0	7	16	167	2	1	2	;
	236	238	7.0	8	16	168	2	1	2	;
	236	239	5.5	9	16	169	2	1	2	;
	237	242	3.5	0	17	170	2	1	2	;
	237	243	5.0	1	17	171	2	1	2	;
	238	243	3.0	2	17	172	2	1	2	;
	238	244	7.0	3	17	173	2	1	2	;
	239	244	5.5	4	17	174	2	1	2	;
	238	241	3.5	5	17	175	2	1	2	;
	239	241	5.0	6	17	176	2	1	2	;
	239	242	3.0	7	17	177	2	1	2	;
	240	242	7.0	8	17	178	2	1	2	;
	240	243	5.5	9	17	179	2	1	2	;
	241	246	3.5	0	18	180	2	1	2	;
	241	247	5.0	1	18	181	2	1	2	;
	242	247	3.0	2	18	182	2	1	2	;
	242	248	7.0	3	18	183	2	1	2	;
	243	248	5.5	4	18	184	2	1	2	;
	242	245	3.5	5	18	185	2	1	2	;
	243	245	5.0	6	18	186	2	1	2	;
	243	246	3.0	7	18	187	2	1	2	;
	244	246	7.0	8	18	188	2	1	2	;
	244	247	5.5	9	18	189	2	1	2	;
	1	5	50.0	-1	-1	-1	-1	-1	0	;
	1	6	50.0	-1	-1	-1	-1	-1	0	;
	1	7	50.0	-1	-1	-1	-1	-1	0	;
	1	8	50.0	-1	-1	-1	-1	-1	0	;
	2	5	50.0	-1	-1	-1	-1	-1	0	;
	2	6	50.0	-1	-1	-1	-1	-1	0	;
	2	7	50.0	-1	-1	-1	-1	-1	0	;
	2	8	50.0	-1	-1	-1	-1	-1	0	;
	3	5	50.0	-1	-1	-1	-1	-1	0	;
	3	6	50.0	-1	-1	-1	-1	-1	0	;
	3	7	50.0	-1	-1	-1	-1	-1	0	;
	3	8	50.0	-1	-1	-1	-1	-1	0	;
	4	5	50.0	-1	-1	-1	-1	-1	0	;
	4	6	50.0	-1	-1	-1	-1	-1	0	;
	4	7	50.0	-1	-1	-1	-1	-1	0	;
	4	8	50.0	-1	-1	-1	-1	-1	0	;
	1	9	1.0	-1	0	-1	0	-1	0	;
	2	10	1.0	-1	0	-1	0	-1	0	;
	3	11	1.0	-1	0	-1	0	-1	0	;
	4	12	1.0	-1	0	-1	0	-1	0	;
	1	13	1.0	-1	1	-1	0	-1	0	;
	2	14	1.0	-1	1	-1	0	-1	0	;
	3	15	1.0	-1	1	-1	0	-1	0	;
	4	16	1.0	-1	1	-1	0	-1	0	;
	1	17	1.0	-1	2	-1	0	-1	0	;
	2	18	1.0	-1	2	-1	0	-1	0	;
	3	19	1.0	-1	2	-1	0	-1	0	;
	4	20	1.0	-1	2	-1	0	-1	0	;
	1	21	1.0	-1	3	-1	0	-1	0	;
	2	22	1.0	-1	3	-1	0	-1	0	;
	3	23	1.0	-1	3	-1	0	-1	0	;
	4	24	1.0	-1	3	-1	0	-1	0	;
	1	25	1.0	-1	4	-1	0	-1	0	;
	2	26	1.0	-1	4	-1	0	-1	0	;
	3	27	1.0	-1	4	-1	0	-1	0	;
	4	28	1.0	-1	4	-1	0	-1	0	;
	1	29	1.0	-1	5	-1	0	-1	0	;
	2	30	1.0	-1	5	-1	0	-1	0	;
	3	31	1.0	-1	5	-1	0	-1	0	;
	4	32	1.0	-1	5	-1	0	-1	0	;
	1	33	1.0	-1	6	-1	0	-1	0	;
	2	34	1.0	-1	6	-1	0	-1	0	;
	3	35	1.0	-1	6	-1	0	-1	0	;
	4	36	1.0	-1	6	-1	0	-1	0	;
	1	37	1.0	-1	7	-1	0	-1	0	;
	2	38	1.0	-1	7	-1	0	-1	0	;
	3	39	1.0	-1	7	-1	0	-1	0	;
	4	40	1.0	-1	7	-1	0	-1	0	;
	1	41	1.0	-1	8	-1	0	-1	0	;
	2	42	1.0	-1	8	-1	0	-1	0	;
	3	43	1.0	-1	8	-1	0	-1	0	;
	4	44	1.0	-1	8	-1	0	-1	0	;
	1	45	1.0	-1	9	-1	0	-1	0	;
	2	46	1.0	-1	9	-1	0	-1	0	;
	3	47	1.0	-1	9	-1	0	-1	0	;
	4	48	1.0	-1	9	-1	0	-1	0	;
	1	49	1.0	-1	10	-1	0	-1	0	;
	2	50	1.0	-1	10	-1	0	-1	0	;
	3	51	1.0	-1	10	-1	0	-1	0	;
	4	52	1.0	-1	10	-1	0	-1	0	;
	1	53	1.0	-1	11	-1	0	-1	0	;
	2	54	1.0	-1	11	-1	0	-1	0	;
	3	55	1.0	-1	11	-1	0	-1	0	;
	4	56	1.0	-1	11	-1	0	-1	0	;
	1	57	1.0	-1	12	-1	0	-1	0	;
	2	58	1.0	-1	12	-1	0	-1	0	;
	3	59	1.0	-1	12	-1	0	-1	0	;
	4	60	1.0	-1	12	-1	0	-1	0	;
	1	61	1.0	-1	13	-1	0	-1	0	;
	2	62	1.0	-1	13	-1	0	-1	0	;
	3	63	1.0	-1	13	-1	0	-1	0	;
	4	64	1.0	-1	13	-1	0	-1	0	;
	1	65	1.0	-1	14	-1	0	-1	0	;
	2	66	1.0	-1	14	-1	0	-1	0	;
	3	67	1.0	-1	14	-1	0	-1	0	;
	4	68	1.0	-1	14	-1	0	-1	0	;
	1	69	1.0	-1	15	-1	0	-1	0	;
	2	70	1.0	-1	15	-1	0	-1	0	;
	3	71	1.0	-1	15	-1	0	-1	0	;
	4	72	1.0	-1	15	-1	0	-1	0	;
	1	73	1.0	-1	16	-1	0	-1	0	;
	2	74	1.0	-1	16	-1	0	-1	0	;
	3	75	1.0	-1	16	-1	0	-1	0	;
	4	76	1.0	-1	16	-1	0	-1	0	;
	1	77	1.0	-1	17	-1	0	-1	0	;
	2	78	1.0	-1	17	-1	0	-1	0	;
	3	79	1.0	-1	17	-1	0	-1	0	;
	4	80	1.0	-1	17	-1	0	-1	0	;
	1	81	1.0	-1	18	-1	0	-1	0	;
	2	82	1.0	-1	18	-1	0	-1	0	;
	3	83	1.0	-1	18	-1	0	-1	0	;
	4	84	1.0	-1	18	-1	0	-1	0	;
	1	85	1.0	-1	19	-1	0	-1	0	;
	2	86	1.0	-1	19	-1	0	-1	0	;
	3	87	1.0	-1	19	-1	0	-1	0	;
	4	88	1.0	-1	19	-1	0	-1	0	;
	9	5	6.0	-1	0	-1	0	-1	0	;
	10	6	6.0	-1	0	-1	0	-1	0	;
	11	7	6.0	-1	0	-1	0	-1	0	;
	12	8	6.0	-1	0	-1	0	-1	0	;
	13	5	5.5	-1	1	-1	0	-1	0	;
	14	6	5.5	-1	1	-1	0	-1	0	;
	15	7	5.5	-1	1	-1	0	-1	0	;
	16	8	5.5	-1	1	-1	0	-1	0	;
	17	5	5.0	-1	2	-1	0	-1	0	;
	18	6	5.0	-1	2	-1	0	-1	0	;
	19	7	5.0	-1	2	-1	0	-1	0	;
	20	8	5.0	-1	2	-1	0	-1	0	;
	21	5	4.5	-1	3	-1	0	-1	0	;
	22	6	4.5	-1	3	-1	0	-1	0	;
	23	7	4.5	-1	3	-1	0	-1	0	;
	24	8	4.5	-1	3	-1	0	-1	0	;
	25	5	4.0	-1	4	-1	0	-1	0	;
	26	6	4.0	-1	4	-1	0	-1	0	;
	27	7	4.0	-1	4	-1	0	-1	0	;
	28	8	4.0	-1	4	-1	0	-1	0	;
	29	5	3.5	-1	5	-1	0	-1	0	;
	30	6	3.5	-1	5	-1	0	-1	0	;
	31	7	3.5	-1	5	-1	0	-1	0	;
	32	8	3.5	-1	5	-1	0	-1	0	;
	33	5	3.0	-1	6	-1	0	-1	0	;
	34	6	3.0	-1	6	-1	0	-1	0	;
	35	7	3.0	-1	6	-1	0	-1	0	;
	36	8	3.0	-1	6	-1	0	-1	0	;
	37	5	2.5	-1	7	-1	0	-1	0	;
	38	6	2.5	-1	7	-1	0	-1	0	;
	39	7	2.5	-1	7	-1	0	-1	0	;
	40	8	2.5	-1	7	-1	0	-1	0	;
	41	5	2.0	-1	8	-1	0	-1	0	;
	42	6	2.0	-1	8	-1	0	-1	0	;
	43	7	2.0	-1	8	-1	0	-1	0	;
	44	8	2.0	-1	8	-1	0	-1	0	;
	45	5	1.5	-1	9	-1	0	-1	0	;
	46	6	1.5	-1	9	-1	0	-1	0	;
	47	7	1.5	-1	9	-1	0	-1	0	;
	48	8	1.5	-1	9	-1	0	-1	0	;
	49	5	1.0	-1	10	-1	0	-1	0	;
	50	6	1.0	-1	10	-1	0	-1	0	;
	51	7	1.0	-1	10	-1	0	-1	0	;
	52	8	1.0	-1	10	-1	0	-1	0	;
	53	5	0.5	-1	11	-1	0	-1	0	;
	54	6	0.5	-1	11	-1	0	-1	0	;
	55	7	0.5	-1	11	-1	0	-1	0	;
	56	8	0.5	-1	11	-1	0	-1	0	;
	57	5	0.0	-1	12	-1	0	-1	0	;
	58	6	0.0	-1	12	-1	0	-1	0	;
	59	7	0.0	-1	12	-1	0	-1	0	;
	60	8	0.0	-1	12	-1	0	-1	0	;
	61	5	1.0	-1	13	-1	0	-1	0	;
	62	6	1.0	-1	13	-1	0	-1	0	;
	63	7	1.0	-1	13	-1	0	-1	0	;
	64	8	1.0	-1	13	-1	0	-1	0	;
	65	5	2.0	-1	14	-1	0	-1	0	;
	66	6	2.0	-1	14	-1	0	-1	0	;
	67	7	2.0	-1	14	-1	0	-1	0	;
	68	8	2.0	-1	14	-1	0	-1	0	;
	69	5	3.0	-1	15	-1	0	-1	0	;
	70	6	3.0	-1	15	-1	0	-1	0	;
	71	7	3.0	-1	15	-1	0	-1	0	;
	72	8	3.0	-1	15	-1	0	-1	0	;
	73	5	4.0	-1	16	-1	0	-1	0	;
	74	6	4.0	-1	16	-1	0	-1	0	;
	75	7	4.0	-1	16	-1	0	-1	0	;
	76	8	4.0	-1	16	-1	0	-1	0	;
	77	5	5.0	-1	17	-1	0	-1	0	;
	78	6	5.0	-1	17	-1	0	-1	0	;
	79	7	5.0	-1	17	-1	0	-1	0	;
	80	8	5.0	-1	17	-1	0	-1	0	;
	81	5	6.0	-1	18	-1	0	-1	0	;
	82	6	6.0	-1	18	-1	0	-1	0	;
	83	7	6.0	-1	18	-1	0	-1	0	;
	84	8	6.0	-1	18	-1	0	-1	0	;
	85	5	7.0	-1	19	-1	0	-1	0	;
	86	6	7.0	-1	19	-1	0	-1	0	;
	87	7	7.0	-1	19	-1	0	-1	0	;
	88	8	7.0	-1	19	-1	0	-1	0	;
	9	93	1.0	-1	0	-1	-1	2	1	;
	10	94	1.0	-1	0	-1	-1	2	1	;
	11	95	1.0	-1	0	-1	-1	2	1	;
	12	96	1.0	-1	0	-1	-1	2	1	;
	13	97	1.0	-1	1	-1	-1	2	1	;
	14	98	1.0	-1	1	-1	-1	2	1	;
	15	99	1.0	-1	1	-1	-1	2	1	;
	16	100	1.0	-1	1	-1	-1	2	1	;
	17	101	1.0	-1	2	-1	-1	2	1	;
	18	102	1.0	-1	2	-1	-1	2	1	;
	19	103	1.0	-1	2	-1	-1	2	1	;
	20	104	1.0	-1	2	-1	-1	2	1	;
	21	105	1.0	-1	3	-1	-1	2	1	;
	22	106	1.0	-1	3	-1	-1	2	1	;
	23	107	1.0	-1	3	-1	-1	2	1	;
	24	108	1.0	-1	3	-1	-1	2	1	;
	25	109	1.0	-1	4	-1	-1	2	1	;
	26	110	1.0	-1	4	-1	-1	2	1	;
	27	111	1.0	-1	4	-1	-1	2	1	;
	28	112	1.0	-1	4	-1	-1	2	1	;
	29	113	1.0	-1	5	-1	-1	2	1	;
	30	114	1.0	-1	5	-1	-1	2	1	;
	31	115	1.0	-1	5	-1	-1	2	1	;
	32	116	1.0	-1	5	-1	-1	2	1	;
	33	117	1.0	-1	6	-1	-1	2	1	;
	34	118	1.0	-1	6	-1	-1	2	1	;
	35	119	1.0	-1	6	-1	-1	2	1	;
	36	120	1.0	-1	6	-1	-1	2	1	;
	37	121	1.0	-1	7	-1	-1	2	1	;
	38	122	1.0	-1	7	-1	-1	2	1	;
	39	123	1.0	-1	7	-1	-1	2	1	;
	40	124	1.0	-1	7	-1	-1	2	1	;
	41	125	1.0	-1	8	-1	-1	2	1	;
	42	126	1.0	-1	8	-1	-1	2	1	;
	43	127	1.0	-1	8	-1	-1	2	1	;
	44	128	1.0	-1	8	-1	-1	2	1	;
	45	129	1.0	-1	9	-1	-1	2	1	;
	46	130	1.0	-1	9	-1	-1	2	1	;
	47	131	1.0	-1	9	-1	-1	2	1	;
	48	132	1.0	-1	9	-1	-1	2	1	;
	49	133	1.0	-1	10	-1	-1	2	1	;
	50	134	1.0	-1	10	-1	-1	2	1	;
	51	135	1.0	-1	10	-1	-1	2	1	;
	52	136	1.0	-1	10	-1	-1	2	1	;
	53	137	1.0	-1	11	-1	-1	2	1	;
	54	138	1.0	-1	11	-1	-1	2	1	;
	55	139	1.0	-1	11	-1	-1	2	1	;
	56	140	1.0	-1	11	-1	-1	2	1	;
	57	141	1.0	-1	12	-1	-1	2	1	;
	58	142	1.0	-1	12	-1	-1	2	1	;
	59	143	1.0	-1	12	-1	-1	2	1	;
	60	144	1.0	-1	12	-1	-1	2	1	;
	61	145	1.0	-1	13	-1	-1	2	1	;
	62	146	1.0	-1	13	-1	-1	2	1	;
	63	147	1.0	-1	13	-1	-1	2	1	;
	64	148	1.0	-1	13	-1	-1	2	1	;
	65	149	1.0	-1	14	-1	-1	2	1	;
	66	150	1.0	-1	14	-1	-1	2	1	;
	67	151	1.0	-1	14	-1	-1	2	1	;
	68	152	1.0	-1	14	-1	-1	2	1	;
	69	153	1.0	-1	15	-1	-1	2	1	;
	70	154	1.0	-1	15	-1	-1	2	1	;
	71	155	1.0	-1	15	-1	-1	2	1	;
	72	156	1.0	-1	15	-1	-1	2	1	;
	73	157	1.0	-1	16	-1	-1	2	1	;
	74	158	1.0	-1	16	-1	-1	2	1	;
	75	159	1.0	-1	16	-1	-1	2	1	;
	76	160	1.0	-1	16	-1	-1	2	1	;
	77	161	1.0	-1	17	-1	-1	2	1	;
	78	162	1.0	-1	17	-1	-1	2	1	;
	79	163	1.0	-1	17	-1	-1	2	1	;
	80	164	1.0	-1	17	-1	-1	2	1	;
	81	165	1.0	-1	18	-1	-1	2	1	;
	82	166	1.0	-1	18	-1	-1	2	1	;
	83	167	1.0	-1	18	-1	-1	2	1	;
	84	168	1.0	-1	18	-1	-1	2	1	;
	89	173	1.0	-1	0	-1	-1	2	2	;
	90	174	1.0	-1	0	-1	-1	2	2	;
	91	175	1.0	-1	0	-1	-1	2	2	;
	92	176	1.0	-1	0	-1	-1	2	2	;
	93	177	1.0	-1	1	-1	-1	2	2	;
	94	178	1.0	-1	1	-1	-1	2	2	;
	95	179	1.0	-1	1	-1	-1	2	2	;
	96	180	1.0	-1	1	-1	-1	2	2	;
	97	181	1.0	-1	2	-1	-1	2	2	;
	98	182	1.0	-1	2	-1	-1	2	2	;
	99	183	1.0	-1	2	-1	-1	2	2	;
	100	184	1.0	-1	2	-1	-1	2	2	;
	101	185	1.0	-1	3	-1	-1	2	2	;
	102	186	1.0	-1	3	-1	-1	2	2	;
	103	187	1.0	-1	3	-1	-1	2	2	;
	104	188	1.0	-1	3	-1	-1	2	2	;
	105	189	1.0	-1	4	-1	-1	2	2	;
	106	190	1.0	-1	4	-1	-1	2	2	;
	107	191	1.0	-1	4	-1	-1	2	2	;
	108	192	1.0	-1	4	-1	-1	2	2	;
	109	193	1.0	-1	5	-1	-1	2	2	;
	110	194	1.0	-1	5	-1	-1	2	2	;
	111	195	1.0	-1	5	-1	-1	2	2	;
	112	196	1.0	-1	5	-1	-1	2	2	;
	113	197	1.0	-1	6	-1	-1	2	2	;
	114	198	1.0	-1	6	-1	-1	2	2	;
	115	199	1.0	-1	6	-1	-1	2	2	;
	116	200	1.0	-1	6	-1	-1	2	2	;
	117	201	1.0	-1	7	-1	-1	2	2	;
	118	202	1.0	-1	7	-1	-1	2	2	;
	119	203	1.0	-1	7	-1	-1	2	2	;
	120	204	1.0	-1	7	-1	-1	2	2	;
	121	205	1.0	-1	8	-1	-1	2	2	;
	122	206	1.0	-1	8	-1	-1	2	2	;
	123	207	1.0	-1	8	-1	-1	2	2	;
	124	208	1.0	-1	8	-1	-1	2	2	;
	125	209	1.0	-1	9	-1	-1	2	2	;
	126	210	1.0	-1	9	-1	-1	2	2	;
	127	211	1.0	-1	9	-1	-1	2	2	;
	128	212	1.0	-1	9	-1	-1	2	2	;
	129	213	1.0	-1	10	-1	-1	2	2	;
	130	214	1.0	-1	10	-1	-1	2	2	;
	131	215	1.0	-1	10	-1	-1	2	2	;
	132	216	1.0	-1	10	-1	-1	2	2	;
	133	217	1.0	-1	11	-1	-1	2	2	;
	134	218	1.0	-1	11	-1	-1	2	2	;
	135	219	1.0	-1	11	-1	-1	2	2	;
	136	220	1.0	-1	11	-1	-1	2	2	;
	137	221	1.0	-1	12	-1	-1	2	2	;
	138	222	1.0	-1	12	-1	-1	2	2	;
	139	223	1.0	-1	12	-1	-1	2	2	;
	140	224	1.0	-1	12	-1	-1	2	2	;
	141	225	1.0	-1	13	-1	-1	2	2	;
	142	226	1.0	-1	13	-1	-1	2	2	;
	143	227	1.0	-1	13	-1	-1	2	2	;
	144	228	1.0	-1	13	-1	-1	2	2	;
	145	229	1.0	-1	14	-1	-1	2	2	;
	146	230	1.0	-1	14	-1	-1	2	2	;
	147	231	1.0	-1	14	-1	-1	2	2	;
	148	232	1.0	-1	14	-1	-1	2	2	;
	149	233	1.0	-1	15	-1	-1	2	2	;
	150	234	1.0	-1	15	-1	-1	2	2	;
	151	235	1.0	-1	15	-1	-1	2	2	;
	152	236	1.0	-1	15	-1	-1	2	2	;
	153	237	1.0	-1	16	-1	-1	2	2	;
	154	238	1.0	-1	16	-1	-1	2	2	;
	155	239	1.0	-1	16	-1	-1	2	2	;
	156	240	1.0	-1	16	-1	-1	2	2	;
	157	241	1.0	-1	17	-1	-1	2	2	;
	158	242	1.0	-1	17	-1	-1	2	2	;
	159	243	1.0	-1	17	-1	-1	2	2	;
	160	244	1.0	-1	17	-1	-1	2	2	;
	161	245	1.0	-1	18	-1	-1	2	2	;
	162	246	1.0	-1	18	-1	-1	2	2	;
	163	247	1.0	-1	18	-1	-1	2	2	;
	164	248	1.0	-1	18	-1	-1	2	2	;
	89	13	1.0	-1	0	-1	-1	3	1	;
	90	14	1.0	-1	0	-1	-1	3	1	;
	91	15	1.0	-1	0	-1	-1	3	1	;
	92	16	1.0	-1	0	-1	-1	3	1	;
	93	17	1.0	-1	1	-1	-1	3	1	;
	94	18	1.0	-1	1	-1	-1	3	1	;
	95	19	1.0	-1	1	-1	-1	3	1	;
	96	20	1.0	-1	1	-1	-1	3	1	;
	97	21	1.0	-1	2	-1	-1	3	1	;
	98	22	1.0	-1	2	-1	-1	3	1	;
	99	23	1.0	-1	2	-1	-1	3	1	;
	100	24	1.0	-1	2	-1	-1	3	1	;
	101	25	1.0	-1	3	-1	-1	3	1	;
	102	26	1.0	-1	3	-1	-1	3	1	;
	103	27	1.0	-1	3	-1	-1	3	1	;
	104	28	1.0	-1	3	-1	-1	3	1	;
	105	29	1.0	-1	4	-1	-1	3	1	;
	106	30	1.0	-1	4	-1	-1	3	1	;
	107	31	1.0	-1	4	-1	-1	3	1	;
	108	32	1.0	-1	4	-1	-1	3	1	;
	109	33	1.0	-1	5	-1	-1	3	1	;
	110	34	1.0	-1	5	-1	-1	3	1	;
	111	35	1.0	-1	5	-1	-1	3	1	;
	112	36	1.0	-1	5	-1	-1	3	1	;
	113	37	1.0	-1	6	-1	-1	3	1	;
	114	38	1.0	-1	6	-1	-1	3	1	;
	115	39	1.0	-1	6	-1	-1	3	1	;
	116	40	1.0	-1	6	-1	-1	3	1	;
	117	41	1.0	-1	7	-1	-1	3	1	;
	118	42	1.0	-1	7	-1	-1	3	1	;
	119	43	1.0	-1	7	-1	-1	3	1	;
	120	44	1.0	-1	7	-1	-1	3	1	;
	121	45	1.0	-1	8	-1	-1	3	1	;
	122	46	1.0	-1	8	-1	-1	3	1	;
	123	47	1.0	-1	8	-1	-1	3	1	;
	124	48	1.0	-1	8	-1	-1	3	1	;
	125	49	1.0	-1	9	-1	-1	3	1	;
	126	50	1.0	-1	9	-1	-1	3	1	;
	127	51	1.0	-1	9	-1	-1	3	1	;
	128	52	1.0	-1	9	-1	-1	3	1	;
	129	53	1.0	-1	10	-1	-1	3	1	;
	130	54	1.0	-1	10	-1	-1	3	1	;
	131	55	1.0	-1	10	-1	-1	3	1	;
	132	56	1.0	-1	10	-1	-1	3	1	;
	133	57	1.0	-1	11	-1	-1	3	1	;
	134	58	1.0	-1	11	-1	-1	3	1	;
	135	59	1.0	-1	11	-1	-1	3	1	;
	136	60	1.0	-1	11	-1	-1	3	1	;
	137	61	1.0	-1	12	-1	-1	3	1	;
	138	62	1.0	-1	12	-1	-1	3	1	;
	139	63	1.0	-1	12	-1	-1	3	1	;
	140	64	1.0	-1	12	-1	-1	3	1	;
	141	65	1.0	-1	13	-1	-1	3	1	;
	142	66	1.0	-1	13	-1	-1	3	1	;
	143	67	1.0	-1	13	-1	-1	3	1	;
	144	68	1.0	-1	13	-1	-1	3	1	;
	145	69	1.0	-1	14	-1	-1	3	1	;
	146	70	1.0	-1	14	-1	-1	3	1	;
	147	71	1.0	-1	14	-1	-1	3	1	;
	148	72	1.0	-1	14	-1	-1	3	1	;
	149	73	1.0	-1	15	-1	-1	3	1	;
	150	74	1.0	-1	15	-1	-1	3	1	;
	151	75	1.0	-1	15	-1	-1	3	1	;
	152	76	1.0	-1	15	-1	-1	3	1	;
	153	77	1.0	-1	16	-1	-1	3	1	;
	154	78	1.0	-1	16	-1	-1	3	1	;
	155	79	1.0	-1	16	-1	-1	3	1	;
	156	80	1.0	-1	16	-1	-1	3	1	;
	157	81	1.0	-1	17	-1	-1	3	1	;
	158	82	1.0	-1	17	-1	-1	3	1	;
	159	83	1.0	-1	17	-1	-1	3	1	;
	160	84	1.0	-1	17	-1	-1	3	1	;
	161	85	1.0	-1	18	-1	-1	3	1	;
	162	86	1.0	-1	18	-1	-1	3	1	;
	163	87	1.0	-1	18	-1	-1	3	1	;
	164	88	1.0	-1	18	-1	-1	3	1	;
	169	93	1.0	-1	0	-1	-1	3	2	;
	170	94	1.0	-1	0	-1	-1	3	2	;
	171	95	1.0	-1	0	-1	-1	3	2	;
	172	96	1.0	-1	0	-1	-1	3	2	;
	173	97	1.0	-1	1	-1	-1	3	2	;
	174	98	1.0	-1	1	-1	-1	3	2	;
	175	99	1.0	-1	1	-1	-1	3	2	;
	176	100	1.0	-1	1	-1	-1	3	2	;
	177	101	1.0	-1	2	-1	-1	3	2	;
	178	102	1.0	-1	2	-1	-1	3	2	;
	179	103	1.0	-1	2	-1	-1	3	2	;
	180	104	1.0	-1	2	-1	-1	3	2	;
	181	105	1.0	-1	3	-1	-1	3	2	;
	182	106	1.0	-1	3	-1	-1	3	2	;
	183	107	1.0	-1	3	-1	-1	3	2	;
	184	108	1.0	-1	3	-1	-1	3	2	;
	185	109	1.0	-1	4	-1	-1	3	2	;
	186	110	1.0	-1	4	-1	-1	3	2	;
	187	111	1.0	-1	4	-1	-1	3	2	;
	188	112	1.0	-1	4	-1	-1	3	2	;
	189	113	1.0	-1	5	-1	-1	3	2	;
	190	114	1.0	-1	5	-1	-1	3	2	;
	191	115	1.0	-1	5	-1	-1	3	2	;
	192	116	1.0	-1	5	-1	-1	3	2	;
	193	117	1.0	-1	6	-1	-1	3	2	;
	194	118	1.0	-1	6	-1	-1	3	2	;
	195	119	1.0	-1	6	-1	-1	3	2	;
	196	120	1.0	-1	6	-1	-1	3	2	;
	197	121	1.0	-1	7	-1	-1	3	2	;
	198	122	1.0	-1	7	-1	-1	3	2	;
	199	123	1.0	-1	7	-1	-1	3	2	;
	200	124	1.0	-1	7	-1	-1	3	2	;
	201	125	1.0	-1	8	-1	-1	3	2	;
	202	126	1.0	-1	8	-1	-1	3	2	;
	203	127	1.0	-1	8	-1	-1	3	2	;
	204	128	1.0	-1	8	-1	-1	3	2	;
	205	129	1.0	-1	9	-1	-1	3	2	;
	206	130	1.0	-1	9	-1	-1	3	2	;
	207	131	1.0	-1	9	-1	-1	3	2	;
	208	132	1.0	-1	9	-1	-1	3	2	;
	209	133	1.0	-1	10	-1	-1	3	2	;
	210	134	1.0	-1	10	-1	-1	3	2	;
	211	135	1.0	-1	10	-1	-1	3	2	;
	212	136	1.0	-1	10	-1	-1	3	2	;
	213	137	1.0	-1	11	-1	-1	3	2	;
	214	138	1.0	-1	11	-1	-1	3	2	;
	215	139	1.0	-1	11	-1	-1	3	2	;
	216	140	1.0	-1	11	-1	-1	3	2	;
	217	141	1.0	-1	12	-1	-1	3	2	;
	218	142	1.0	-1	12	-1	-1	3	2	;
	219	143	1.0	-1	12	-1	-1	3	2	;
	220	144	1.0	-1	12	-1	-1	3	2	;
	221	145	1.0	-1	13	-1	-1	3	2	;
	222	146	1.0	-1	13	-1	-1	3	2	;
	223	147	1.0	-1	13	-1	-1	3	2	;
	224	148	1.0	-1	13	-1	-1	3	2	;
	225	149	1.0	-1	14	-1	-1	3	2	;
	226	150	1.0	-1	14	-1	-1	3	2	;
	227	151	1.0	-1	14	-1	-1	3	2	;
	228	152	1.0	-1	14	-1	-1	3	2	;
	229	153	1.0	-1	15	-1	-1	3	2	;
	230	154	1.0	-1	15	-1	-1	3	2	;
	231	155	1.0	-1	15	-1	-1	3	2	;
	232	156	1.0	-1	15	-1	-1	3	2	;
	233	157	1.0	-1	16	-1	-1	3	2	;
	234	158	1.0	-1	16	-1	-1	3	2	;
	235	159	1.0	-1	16	-1	-1	3	2	;
	236	160	1.0	-1	16	-1	-1	3	2	;
	237	161	1.0	-1	17	-1	-1	3	2	;