<NUMBER OF ZONES> 8
<TOTAL OD FLOW> 1000.0
<END OF METADATA>



Origin  1
	5 :	87.94277021191319;	6 :	2.6347279205320513;	7 :	9.78195805837799;	8 :	103.54875731911628;

Origin  2
	5 :	81.35749944608781;	6 :	58.97018699216549;	7 :	41.01028458173971;	8 :	99.63688425427765;

Origin  3
	5 :	28.15483430273237;	6 :	69.25472607681469;	7 :	55.60169371475115;	8 :	28.67556821575339;

Origin  4
	5 :	78.24785050370727;	6 :	87.62920642439347;	7 :	89.54007186762882;	8 :	78.01298011000854;