<NUMBER OF ZONES> 8
<TOTAL OD FLOW> 20.0
<END OF METADATA>



Origin  1
	5 :	4.765810101302039;	6 :	14.885746383348316;	7 :	3.2814599006771727;	8 :	9.994066786880909;

Origin  2
	5 :	15.972275048714874;	6 :	1.3791815480700298;	7 :	5.4355115088935175;	8 :	13.139927458313467;

Origin  3
	5 :	10.971568020082179;	6 :	6.226362546128302;	7 :	7.1709516334875145;	8 :	6.700605672351285;

Origin  4
	5 :	15.163064043314114;	6 :	10.455706008840842;	7 :	13.4992984897919;	8 :	18.795021325698073;