<NUMBER OF ZONES> 8
<TOTAL OD FLOW> 20.0
<END OF METADATA>



Origin  1
	5 :	1.6967541954168581;	6 :	1.2039698540031436;	7 :	0.978924623316646;	8 :	1.0217884539386695;

Origin  2
	5 :	1.935409817319782;	6 :	1.250701308453675;	7 :	1.1391936554953035;	8 :	1.1183159826295195;

Origin  3
	5 :	0.41683575033597325;	6 :	1.0887242162243915;	7 :	2.161083156454069;	8 :	2.0450833475815973;

Origin  4
	5 :	1.0321424664953898;	6 :	1.1300479323127237;	7 :	0.36980009945497877;	8 :	1.411225140567281;