<NUMBER OF ZONES> 8
<TOTAL OD FLOW> 20.0
<END OF METADATA>



Origin  1
	5 :	0.09976292184107745;	6 :	0.08476567302189211;	7 :	2.16531796698035;	8 :	1.7716170778614238;

Origin  2
	5 :	1.8073953104459244;	6 :	1.614567979411309;	7 :	0.4499520024712583;	8 :	1.4331352559075112;

Origin  3
	5 :	2.0400997845647693;	6 :	0.05608133575645296;	7 :	1.763818334480274;	8 :	1.5639628212555445;

Origin  4
	5 :	0.9529208695372315;	6 :	2.1605378631427605;	7 :	1.6635539126488195;	8 :	0.3725108906734069;