<NUMBER OF ZONES> 8
<TOTAL OD FLOW> 20.0
<END OF METADATA>



Origin  1
	5 :	1.4581348135233827;	6 :	1.2939319372321973;	7 :	1.3045431030686485;	8 :	0.9013426863540975;

Origin  2
	5 :	1.189903425217314;	6 :	0.15546359070170065;	7 :	1.8748827490126618;	8 :	1.8986311122555657;

Origin  3
	5 :	1.6881425565175312;	6 :	1.058282003041672;	7 :	1.1108734987340154;	8 :	1.663377628994852;

Origin  4
	5 :	0.45037934676318836;	6 :	1.6266181449222505;	7 :	0.525910075396605;	8 :	1.7995833282643197;