<NUMBER OF ZONES> 18
<NUMBER OF NODES> 378
<FIRST THRU NODE> 1
<NUMBER OF LINKS> 1239
<ORIGINAL HEADER> 
<END OF METADATA>


~	init_node	term_node	free_flow_time	original_link	time	original_TS_link	user_state	link_type	price_index	;
	19	29	9.0	0	0	0	0	1	0	;
	19	31	9.0	1	0	1	0	1	0	;
	20	30	9.0	2	0	2	0	1	0	;
	20	32	9.0	3	0	3	0	1	0	;
	21	33	9.0	4	0	4	0	1	0	;
	22	32	9.0	5	0	5	0	1	0	;
	22	34	9.0	6	0	6	0	1	0	;
	23	33	9.0	7	0	7	0	1	0	;
	23	35	9.0	8	0	8	0	1	0	;
	24	36	9.0	9	0	9	0	1	0	;
	25	35	9.0	10	0	10	0	1	0	;
	26	36	9.0	11	0	11	0	1	0	;
	28	38	9.0	0	1	12	0	1	0	;
	28	40	9.0	1	1	13	0	1	0	;
	29	39	9.0	2	1	14	0	1	0	;
	29	41	9.0	3	1	15	0	1	0	;
	30	42	9.0	4	1	16	0	1	0	;
	31	41	9.0	5	1	17	0	1	0	;
	31	43	9.0	6	1	18	0	1	0	;
	32	42	9.0	7	1	19	0	1	0	;
	32	44	9.0	8	1	20	0	1	0	;
	33	45	9.0	9	1	21	0	1	0	;
	34	44	9.0	10	1	22	0	1	0	;
	35	45	9.0	11	1	23	0	1	0	;
	37	47	9.0	0	2	24	0	1	0	;
	37	49	9.0	1	2	25	0	1	0	;
	38	48	9.0	2	2	26	0	1	0	;
	38	50	9.0	3	2	27	0	1	0	;
	39	51	9.0	4	2	28	0	1	0	;
	40	50	9.0	5	2	29	0	1	0	;
	40	52	9.0	6	2	30	0	1	0	;
	41	51	9.0	7	2	31	0	1	0	;
	41	53	9.0	8	2	32	0	1	0	;
	42	54	9.0	9	2	33	0	1	0	;
	43	53	9.0	10	2	34	0	1	0	;
	44	54	9.0	11	2	35	0	1	0	;
	46	56	9.0	0	3	36	0	1	0	;
	46	58	9.0	1	3	37	0	1	0	;
	47	57	9.0	2	3	38	0	1	0	;
	47	59	9.0	3	3	39	0	1	0	;
	48	60	9.0	4	3	40	0	1	0	;
	49	59	9.0	5	3	41	0	1	0	;
	49	61	9.0	6	3	42	0	1	0	;
	50	60	9.0	7	3	43	0	1	0	;
	50	62	9.0	8	3	44	0	1	0	;
	51	63	9.0	9	3	45	0	1	0	;
	52	62	9.0	10	3	46	0	1	0	;
	53	63	9.0	11	3	47	0	1	0	;
	55	65	9.0	0	4	48	0	1	0	;
	55	67	9.0	1	4	49	0	1	0	;
	56	66	9.0	2	4	50	0	1	0	;
	56	68	9.0	3	4	51	0	1	0	;
	57	69	9.0	4	4	52	0	1	0	;
	58	68	9.0	5	4	53	0	1	0	;
	58	70	9.0	6	4	54	0	1	0	;
	59	69	9.0	7	4	55	0	1	0	;
	59	71	9.0	8	4	56	0	1	0	;
	60	72	9.0	9	4	57	0	1	0	;
	61	71	9.0	10	4	58	0	1	0	;
	62	72	9.0	11	4	59	0	1	0	;
	64	74	9.0	0	5	60	0	1	0	;
	64	76	9.0	1	5	61	0	1	0	;
	65	75	9.0	2	5	62	0	1	0	;
	65	77	9.0	3	5	63	0	1	0	;
	66	78	9.0	4	5	64	0	1	0	;
	67	77	9.0	5	5	65	0	1	0	;
	67	79	9.0	6	5	66	0	1	0	;
	68	78	9.0	7	5	67	0	1	0	;
	68	80	9.0	8	5	68	0	1	0	;
	69	81	9.0	9	5	69	0	1	0	;
	70	80	9.0	10	5	70	0	1	0	;
	71	81	9.0	11	5	71	0	1	0	;
	73	83	9.0	0	6	72	0	1	0	;
	73	85	9.0	1	6	73	0	1	0	;
	74	84	9.0	2	6	74	0	1	0	;
	74	86	9.0	3	6	75	0	1	0	;
	75	87	9.0	4	6	76	0	1	0	;
	76	86	9.0	5	6	77	0	1	0	;
	76	88	9.0	6	6	78	0	1	0	;
	77	87	9.0	7	6	79	0	1	0	;
	77	89	9.0	8	6	80	0	1	0	;
	78	90	9.0	9	6	81	0	1	0	;
	79	89	9.0	10	6	82	0	1	0	;
	80	90	9.0	11	6	83	0	1	0	;
	82	92	9.0	0	7	84	0	1	0	;
	82	94	9.0	1	7	85	0	1	0	;
	83	93	9.0	2	7	86	0	1	0	;
	83	95	9.0	3	7	87	0	1	0	;
	84	96	9.0	4	7	88	0	1	0	;
	85	95	9.0	5	7	89	0	1	0	;
	85	97	9.0	6	7	90	0	1	0	;
	86	96	9.0	7	7	91	0	1	0	;
	86	98	9.0	8	7	92	0	1	0	;
	87	99	9.0	9	7	93	0	1	0	;
	88	98	9.0	10	7	94	0	1	0	;
	89	99	9.0	11	7	95	0	1	0	;
	91	101	9.0	0	8	96	0	1	0	;
	91	103	9.0	1	8	97	0	1	0	;
	92	102	9.0	2	8	98	0	1	0	;
	92	104	9.0	3	8	99	0	1	0	;
	93	105	9.0	4	8	100	0	1	0	;
	94	104	9.0	5	8	101	0	1	0	;
	94	106	9.0	6	8	102	0	1	0	;
	95	105	9.0	7	8	103	0	1	0	;
	95	107	9.0	8	8	104	0	1	0	;
	96	108	9.0	9	8	105	0	1	0	;
	97	107	9.0	10	8	106	0	1	0	;
	98	108	9.0	11	8	107	0	1	0	;
	100	110	9.0	0	9	108	0	1	0	;
	100	112	9.0	1	9	109	0	1	0	;
	101	111	9.0	2	9	110	0	1	0	;
	101	113	9.0	3	9	111	0	1	0	;
	102	114	9.0	4	9	112	0	1	0	;
	103	113	9.0	5	9	113	0	1	0	;
	103	115	9.0	6	9	114	0	1	0	;
	104	114	9.0	7	9	115	0	1	0	;
	104	116	9.0	8	9	116	0	1	0	;
	105	117	9.0	9	9	117	0	1	0	;
	106	116	9.0	10	9	118	0	1	0	;
	107	117	9.0	11	9	119	0	1	0	;
	109	119	9.0	0	10	120	0	1	0	;
	109	121	9.0	1	10	121	0	1	0	;
	110	120	9.0	2	10	122	0	1	0	;
	110	122	9.0	3	10	123	0	1	0	;
	111	123	9.0	4	10	124	0	1	0	;
	112	122	9.0	5	10	125	0	1	0	;
	112	124	9.0	6	10	126	0	1	0	;
	113	123	9.0	7	10	127	0	1	0	;
	113	125	9.0	8	10	128	0	1	0	;
	114	126	9.0	9	10	129	0	1	0	;
	115	125	9.0	10	10	130	0	1	0	;
	116	126	9.0	11	10	131	0	1	0	;
	118	128	9.0	0	11	132	0	1	0	;
	118	130	9.0	1	11	133	0	1	0	;
	119	129	9.0	2	11	134	0	1	0	;
	119	131	9.0	3	11	135	0	1	0	;
	120	132	9.0	4	11	136	0	1	0	;
	121	131	9.0	5	11	137	0	1	0	;
	121	133	9.0	6	11	138	0	1	0	;
	122	132	9.0	7	11	139	0	1	0	;
	122	134	9.0	8	11	140	0	1	0	;
	123	135	9.0	9	11	141	0	1	0	;
	124	134	9.0	10	11	142	0	1	0	;
	125	135	9.0	11	11	143	0	1	0	;
	127	137	9.0	0	12	144	0	1	0	;
	127	139	9.0	1	12	145	0	1	0	;
	128	138	9.0	2	12	146	0	1	0	;
	128	140	9.0	3	12	147	0	1	0	;
	129	141	9.0	4	12	148	0	1	0	;
	130	140	9.0	5	12	149	0	1	0	;
	130	142	9.0	6	12	150	0	1	0	;
	131	141	9.0	7	12	151	0	1	0	;
	131	143	9.0	8	12	152	0	1	0	;
	132	144	9.0	9	12	153	0	1	0	;
	133	143	9.0	10	12	154	0	1	0	;
	134	144	9.0	11	12	155	0	1	0	;
	136	146	9.0	0	13	156	0	1	0	;
	136	148	9.0	1	13	157	0	1	0	;
	137	147	9.0	2	13	158	0	1	0	;
	137	149	9.0	3	13	159	0	1	0	;
	138	150	9.0	4	13	160	0	1	0	;
	139	149	9.0	5	13	161	0	1	0	;
	139	151	9.0	6	13	162	0	1	0	;
	140	150	9.0	7	13	163	0	1	0	;
	140	152	9.0	8	13	164	0	1	0	;
	141	153	9.0	9	13	165	0	1	0	;
	142	152	9.0	10	13	166	0	1	0	;
	143	153	9.0	11	13	167	0	1	0	;
	145	155	9.0	0	14	168	0	1	0	;
	145	157	9.0	1	14	169	0	1	0	;
	146	156	9.0	2	14	170	0	1	0	;
	146	158	9.0	3	14	171	0	1	0	;
	147	159	9.0	4	14	172	0	1	0	;
	148	158	9.0	5	14	173	0	1	0	;
	148	160	9.0	6	14	174	0	1	0	;
	149	159	9.0	7	14	175	0	1	0	;
	149	161	9.0	8	14	176	0	1	0	;
	150	162	9.0	9	14	177	0	1	0	;
	151	161	9.0	10	14	178	0	1	0	;
	152	162	9.0	11	14	179	0	1	0	;
	154	164	9.0	0	15	180	0	1	0	;
	154	166	9.0	1	15	181	0	1	0	;
	155	165	9.0	2	15	182	0	1	0	;
	155	167	9.0	3	15	183	0	1	0	;
	156	168	9.0	4	15	184	0	1	0	;
	157	167	9.0	5	15	185	0	1	0	;
	157	169	9.0	6	15	186	0	1	0	;
	158	168	9.0	7	15	187	0	1	0	;
	158	170	9.0	8	15	188	0	1	0	;
	159	171	9.0	9	15	189	0	1	0	;
	160	170	9.0	10	15	190	0	1	0	;
	161	171	9.0	11	15	191	0	1	0	;
	163	173	9.0	0	16	192	0	1	0	;
	163	175	9.0	1	16	193	0	1	0	;
	164	174	9.0	2	16	194	0	1	0	;
	164	176	9.0	3	16	195	0	1	0	;
	165	177	9.0	4	16	196	0	1	0	;
	166	176	9.0	5	16	197	0	1	0	;
	166	178	9.0	6	16	198	0	1	0	;
	167	177	9.0	7	16	199	0	1	0	;
	167	179	9.0	8	16	200	0	1	0	;
	168	180	9.0	9	16	201	0	1	0	;
	169	179	9.0	10	16	202	0	1	0	;
	170	180	9.0	11	16	203	0	1	0	;
	172	182	9.0	0	17	204	0	1	0	;
	172	184	9.0	1	17	205	0	1	0	;
	173	183	9.0	2	17	206	0	1	0	;
	173	185	9.0	3	17	207	0	1	0	;
	174	186	9.0	4	17	208	0	1	0	;
	175	185	9.0	5	17	209	0	1	0	;
	175	187	9.0	6	17	210	0	1	0	;
	176	186	9.0	7	17	211	0	1	0	;
	176	188	9.0	8	17	212	0	1	0	;
	177	189	9.0	9	17	213	0	1	0	;
	178	188	9.0	10	17	214	0	1	0	;
	179	189	9.0	11	17	215	0	1	0	;
	181	191	9.0	0	18	216	0	1	0	;
	181	193	9.0	1	18	217	0	1	0	;
	182	192	9.0	2	18	218	0	1	0	;
	182	194	9.0	3	18	219	0	1	0	;
	183	195	9.0	4	18	220	0	1	0	;
	184	194	9.0	5	18	221	0	1	0	;
	184	196	9.0	6	18	222	0	1	0	;
	185	195	9.0	7	18	223	0	1	0	;
	185	197	9.0	8	18	224	0	1	0	;
	186	198	9.0	9	18	225	0	1	0	;
	187	197	9.0	10	18	226	0	1	0	;
	188	198	9.0	11	18	227	0	1	0	;
	199	209	5.0	0	0	0	1	1	1	;
	199	211	5.0	1	0	1	1	1	1	;
	200	210	5.0	2	0	2	1	1	1	;
	200	212	5.0	3	0	3	1	1	1	;
	201	213	5.0	4	0	4	1	1	1	;
	202	212	5.0	5	0	5	1	1	1	;
	202	214	5.0	6	0	6	1	1	1	;
	203	213	5.0	7	0	7	1	1	1	;
	203	215	5.0	8	0	8	1	1	1	;
	204	216	5.0	9	0	9	1	1	1	;
	205	215	5.0	10	0	10	1	1	1	;
	206	216	5.0	11	0	11	1	1	1	;
	208	218	5.0	0	1	12	1	1	1	;
	208	220	5.0	1	1	13	1	1	1	;
	209	219	5.0	2	1	14	1	1	1	;
	209	221	5.0	3	1	15	1	1	1	;
	210	222	5.0	4	1	16	1	1	1	;
	211	221	5.0	5	1	17	1	1	1	;
	211	223	5.0	6	1	18	1	1	1	;
	212	222	5.0	7	1	19	1	1	1	;
	212	224	5.0	8	1	20	1	1	1	;
	213	225	5.0	9	1	21	1	1	1	;
	214	224	5.0	10	1	22	1	1	1	;
	215	225	5.0	11	1	23	1	1	1	;
	217	227	5.0	0	2	24	1	1	1	;
	217	229	5.0	1	2	25	1	1	1	;
	218	228	5.0	2	2	26	1	1	1	;
	218	230	5.0	3	2	27	1	1	1	;
	219	231	5.0	4	2	28	1	1	1	;
	220	230	5.0	5	2	29	1	1	1	;
	220	232	5.0	6	2	30	1	1	1	;
	221	231	5.0	7	2	31	1	1	1	;
	221	233	5.0	8	2	32	1	1	1	;
	222	234	5.0	9	2	33	1	1	1	;
	223	233	5.0	10	2	34	1	1	1	;
	224	234	5.0	11	2	35	1	1	1	;
	226	236	5.0	0	3	36	1	1	1	;
	226	238	5.0	1	3	37	1	1	1	;
	227	237	5.0	2	3	38	1	1	1	;
	227	239	5.0	3	3	39	1	1	1	;
	228	240	5.0	4	3	40	1	1	1	;
	229	239	5.0	5	3	41	1	1	1	;
	229	241	5.0	6	3	42	1	1	1	;
	230	240	5.0	7	3	43	1	1	1	;
	230	242	5.0	8	3	44	1	1	1	;
	231	243	5.0	9	3	45	1	1	1	;
	232	242	5.0	10	3	46	1	1	1	;
	233	243	5.0	11	3	47	1	1	1	;
	235	245	5.0	0	4	48	1	1	1	;
	235	247	5.0	1	4	49	1	1	1	;
	236	246	5.0	2	4	50	1	1	1	;
	236	248	5.0	3	4	51	1	1	1	;
	237	249	5.0	4	4	52	1	1	1	;
	238	248	5.0	5	4	53	1	1	1	;
	238	250	5.0	6	4	54	1	1	1	;
	239	249	5.0	7	4	55	1	1	1	;
	239	251	5.0	8	4	56	1	1	1	;
	240	252	5.0	9	4	57	1	1	1	;
	241	251	5.0	10	4	58	1	1	1	;
	242	252	5.0	11	4	59	1	1	1	;
	244	254	5.0	0	5	60	1	1	1	;
	244	256	5.0	1	5	61	1	1	1	;
	245	255	5.0	2	5	62	1	1	1	;
	245	257	5.0	3	5	63	1	1	1	;
	246	258	5.0	4	5	64	1	1	1	;
	247	257	5.0	5	5	65	1	1	1	;
	247	259	5.0	6	5	66	1	1	1	;
	248	258	5.0	7	5	67	1	1	1	;
	248	260	5.0	8	5	68	1	1	1	;
	249	261	5.0	9	5	69	1	1	1	;
	250	260	5.0	10	5	70	1	1	1	;
	251	261	5.0	11	5	71	1	1	1	;
	253	263	5.0	0	6	72	1	1	1	;
	253	265	5.0	1	6	73	1	1	1	;
	254	264	5.0	2	6	74	1	1	1	;
	254	266	5.0	3	6	75	1	1	1	;
	255	267	5.0	4	6	76	1	1	1	;
	256	266	5.0	5	6	77	1	1	1	;
	256	268	5.0	6	6	78	1	1	1	;
	257	267	5.0	7	6	79	1	1	1	;
	257	269	5.0	8	6	80	1	1	1	;
	258	270	5.0	9	6	81	1	1	1	;
	259	269	5.0	10	6	82	1	1	1	;
	260	270	5.0	11	6	83	1	1	1	;
	262	272	5.0	0	7	84	1	1	1	;
	262	274	5.0	1	7	85	1	1	1	;
	263	273	5.0	2	7	86	1	1	1	;
	263	275	5.0	3	7	87	1	1	1	;
	264	276	5.0	4	7	88	1	1	1	;
	265	275	5.0	5	7	89	1	1	1	;
	265	277	5.0	6	7	90	1	1	1	;
	266	276	5.0	7	7	91	1	1	1	;
	266	278	5.0	8	7	92	1	1	1	;
	267	279	5.0	9	7	93	1	1	1	;
	268	278	5.0	10	7	94	1	1	1	;
	269	279	5.0	11	7	95	1	1	1	;
	271	281	5.0	0	8	96	1	1	1	;
	271	283	5.0	1	8	97	1	1	1	;
	272	282	5.0	2	8	98	1	1	1	;
	272	284	5.0	3	8	99	1	1	1	;
	273	285	5.0	4	8	100	1	1	1	;
	274	284	5.0	5	8	101	1	1	1	;
	274	286	5.0	6	8	102	1	1	1	;
	275	285	5.0	7	8	103	1	1	1	;
	275	287	5.0	8	8	104	1	1	1	;
	276	288	5.0	9	8	105	1	1	1	;
	277	287	5.0	10	8	106	1	1	1	;
	278	288	5.0	11	8	107	1	1	1	;
	280	290	5.0	0	9	108	1	1	1	;
	280	292	5.0	1	9	109	1	1	1	;
	281	291	5.0	2	9	110	1	1	1	;
	281	293	5.0	3	9	111	1	1	1	;
	282	294	5.0	4	9	112	1	1	1	;
	283	293	5.0	5	9	113	1	1	1	;
	283	295	5.0	6	9	114	1	1	1	;
	284	294	5.0	7	9	115	1	1	1	;
	284	296	5.0	8	9	116	1	1	1	;
	285	297	5.0	9	9	117	1	1	1	;
	286	296	5.0	10	9	118	1	1	1	;
	287	297	5.0	11	9	119	1	1	1	;
	289	299	5.0	0	10	120	1	1	1	;
	289	301	5.0	1	10	121	1	1	1	;
	290	300	5.0	2	10	122	1	1	1	;
	290	302	5.0	3	10	123	1	1	1	;
	291	303	5.0	4	10	124	1	1	1	;
	292	302	5.0	5	10	125	1	1	1	;
	292	304	5.0	6	10	126	1	1	1	;
	293	303	5.0	7	10	127	1	1	1	;
	293	305	5.0	8	10	128	1	1	1	;
	294	306	5.0	9	10	129	1	1	1	;
	295	305	5.0	10	10	130	1	1	1	;
	296	306	5.0	11	10	131	1	1	1	;
	298	308	5.0	0	11	132	1	1	1	;
	298	310	5.0	1	11	133	1	1	1	;
	299	309	5.0	2	11	134	1	1	1	;
	299	311	5.0	3	11	135	1	1	1	;
	300	312	5.0	4	11	136	1	1	1	;
	301	311	5.0	5	11	137	1	1	1	;
	301	313	5.0	6	11	138	1	1	1	;
	302	312	5.0	7	11	139	1	1	1	;
	302	314	5.0	8	11	140	1	1	1	;
	303	315	5.0	9	11	141	1	1	1	;
	304	314	5.0	10	11	142	1	1	1	;
	305	315	5.0	11	11	143	1	1	1	;
	307	317	5.0	0	12	144	1	1	1	;
	307	319	5.0	1	12	145	1	1	1	;
	308	318	5.0	2	12	146	1	1	1	;
	308	320	5.0	3	12	147	1	1	1	;
	309	321	5.0	4	12	148	1	1	1	;
	310	320	5.0	5	12	149	1	1	1	;
	310	322	5.0	6	12	150	1	1	1	;
	311	321	5.0	7	12	151	1	1	1	;
	311	323	5.0	8	12	152	1	1	1	;
	312	324	5.0	9	12	153	1	1	1	;
	313	323	5.0	10	12	154	1	1	1	;
	314	324	5.0	11	12	155	1	1	1	;
	316	326	5.0	0	13	156	1	1	1	;
	316	328	5.0	1	13	157	1	1	1	;
	317	327	5.0	2	13	158	1	1	1	;
	317	329	5.0	3	13	159	1	1	1	;
	318	330	5.0	4	13	160	1	1	1	;
	319	329	5.0	5	13	161	1	1	1	;
	319	331	5.0	6	13	162	1	1	1	;
	320	330	5.0	7	13	163	1	1	1	;
	320	332	5.0	8	13	164	1	1	1	;
	321	333	5.0	9	13	165	1	1	1	;
	322	332	5.0	10	13	166	1	1	1	;
	323	333	5.0	11	13	167	1	1	1	;
	325	335	5.0	0	14	168	1	1	1	;
	325	337	5.0	1	14	169	1	1	1	;
	326	336	5.0	2	14	170	1	1	1	;
	326	338	5.0	3	14	171	1	1	1	;
	327	339	5.0	4	14	172	1	1	1	;
	328	338	5.0	5	14	173	1	1	1	;
	328	340	5.0	6	14	174	1	1	1	;
	329	339	5.0	7	14	175	1	1	1	;
	329	341	5.0	8	14	176	1	1	1	;
	330	342	5.0	9	14	177	1	1	1	;
	331	341	5.0	10	14	178	1	1	1	;
	332	342	5.0	11	14	179	1	1	1	;
	334	344	5.0	0	15	180	1	1	1	;
	334	346	5.0	1	15	181	1	1	1	;
	335	345	5.0	2	15	182	1	1	1	;
	335	347	5.0	3	15	183	1	1	1	;
	336	348	5.0	4	15	184	1	1	1	;
	337	347	5.0	5	15	185	1	1	1	;
	337	349	5.0	6	15	186	1	1	1	;
	338	348	5.0	7	15	187	1	1	1	;
	338	350	5.0	8	15	188	1	1	1	;
	339	351	5.0	9	15	189	1	1	1	;
	340	350	5.0	10	15	190	1	1	1	;
	341	351	5.0	11	15	191	1	1	1	;
	343	353	5.0	0	16	192	1	1	1	;
	343	355	5.0	1	16	193	1	1	1	;
	344	354	5.0	2	16	194	1	1	1	;
	344	356	5.0	3	16	195	1	1	1	;
	345	357	5.0	4	16	196	1	1	1	;
	346	356	5.0	5	16	197	1	1	1	;
	346	358	5.0	6	16	198	1	1	1	;
	347	357	5.0	7	16	199	1	1	1	;
	347	359	5.0	8	16	200	1	1	1	;
	348	360	5.0	9	16	201	1	1	1	;
	349	359	5.0	10	16	202	1	1	1	;
	350	360	5.0	11	16	203	1	1	1	;
	352	362	5.0	0	17	204	1	1	1	;
	352	364	5.0	1	17	205	1	1	1	;
	353	363	5.0	2	17	206	1	1	1	;
	353	365	5.0	3	17	207	1	1	1	;
	354	366	5.0	4	17	208	1	1	1	;
	355	365	5.0	5	17	209	1	1	1	;
	355	367	5.0	6	17	210	1	1	1	;
	356	366	5.0	7	17	211	1	1	1	;
	356	368	5.0	8	17	212	1	1	1	;
	357	369	5.0	9	17	213	1	1	1	;
	358	368	5.0	10	17	214	1	1	1	;
	359	369	5.0	11	17	215	1	1	1	;
	361	371	5.0	0	18	216	1	1	1	;
	361	373	5.0	1	18	217	1	1	1	;
	362	372	5.0	2	18	218	1	1	1	;
	362	374	5.0	3	18	219	1	1	1	;
	363	375	5.0	4	18	220	1	1	1	;
	364	374	5.0	5	18	221	1	1	1	;
	364	376	5.0	6	18	222	1	1	1	;
	365	375	5.0	7	18	223	1	1	1	;
	365	377	5.0	8	18	224	1	1	1	;
	366	378	5.0	9	18	225	1	1	1	;
	367	377	5.0	10	18	226	1	1	1	;
	368	378	5.0	11	18	227	1	1	1	;
	1	10	50.0	-1	-1	-1	-1	-1	0	;
	1	11	50.0	-1	-1	-1	-1	-1	0	;
	1	12	50.0	-1	-1	-1	-1	-1	0	;
	1	13	50.0	-1	-1	-1	-1	-1	0	;
	1	14	50.0	-1	-1	-1	-1	-1	0	;
	1	15	50.0	-1	-1	-1	-1	-1	0	;
	1	16	50.0	-1	-1	-1	-1	-1	0	;
	1	17	50.0	-1	-1	-1	-1	-1	0	;
	1	18	50.0	-1	-1	-1	-1	-1	0	;
	2	10	50.0	-1	-1	-1	-1	-1	0	;
	2	11	50.0	-1	-1	-1	-1	-1	0	;
	2	12	50.0	-1	-1	-1	-1	-1	0	;
	2	13	50.0	-1	-1	-1	-1	-1	0	;
	2	14	50.0	-1	-1	-1	-1	-1	0	;
	2	15	50.0	-1	-1	-1	-1	-1	0	;
	2	16	50.0	-1	-1	-1	-1	-1	0	;
	2	17	50.0	-1	-1	-1	-1	-1	0	;
	2	18	50.0	-1	-1	-1	-1	-1	0	;
	3	10	50.0	-1	-1	-1	-1	-1	0	;
	3	11	50.0	-1	-1	-1	-1	-1	0	;
	3	12	50.0	-1	-1	-1	-1	-1	0	;
	3	13	50.0	-1	-1	-1	-1	-1	0	;
	3	14	50.0	-1	-1	-1	-1	-1	0	;
	3	15	50.0	-1	-1	-1	-1	-1	0	;
	3	16	50.0	-1	-1	-1	-1	-1	0	;
	3	17	50.0	-1	-1	-1	-1	-1	0	;
	3	18	50.0	-1	-1	-1	-1	-1	0	;
	4	10	50.0	-1	-1	-1	-1	-1	0	;
	4	11	50.0	-1	-1	-1	-1	-1	0	;
	4	12	50.0	-1	-1	-1	-1	-1	0	;
	4	13	50.0	-1	-1	-1	-1	-1	0	;
	4	14	50.0	-1	-1	-1	-1	-1	0	;
	4	15	50.0	-1	-1	-1	-1	-1	0	;
	4	16	50.0	-1	-1	-1	-1	-1	0	;
	4	17	50.0	-1	-1	-1	-1	-1	0	;
	4	18	50.0	-1	-1	-1	-1	-1	0	;
	5	10	50.0	-1	-1	-1	-1	-1	0	;
	5	11	50.0	-1	-1	-1	-1	-1	0	;
	5	12	50.0	-1	-1	-1	-1	-1	0	;
	5	13	50.0	-1	-1	-1	-1	-1	0	;
	5	14	50.0	-1	-1	-1	-1	-1	0	;
	5	15	50.0	-1	-1	-1	-1	-1	0	;
	5	16	50.0	-1	-1	-1	-1	-1	0	;
	5	17	50.0	-1	-1	-1	-1	-1	0	;
	5	18	50.0	-1	-1	-1	-1	-1	0	;
	6	10	50.0	-1	-1	-1	-1	-1	0	;
	6	11	50.0	-1	-1	-1	-1	-1	0	;
	6	12	50.0	-1	-1	-1	-1	-1	0	;
	6	13	50.0	-1	-1	-1	-1	-1	0	;
	6	14	50.0	-1	-1	-1	-1	-1	0	;
	6	15	50.0	-1	-1	-1	-1	-1	0	;
	6	16	50.0	-1	-1	-1	-1	-1	0	;
	6	17	50.0	-1	-1	-1	-1	-1	0	;
	6	18	50.0	-1	-1	-1	-1	-1	0	;
	7	10	50.0	-1	-1	-1	-1	-1	0	;
	7	11	50.0	-1	-1	-1	-1	-1	0	;
	7	12	50.0	-1	-1	-1	-1	-1	0	;
	7	13	50.0	-1	-1	-1	-1	-1	0	;
	7	14	50.0	-1	-1	-1	-1	-1	0	;
	7	15	50.0	-1	-1	-1	-1	-1	0	;
	7	16	50.0	-1	-1	-1	-1	-1	0	;
	7	17	50.0	-1	-1	-1	-1	-1	0	;
	7	18	50.0	-1	-1	-1	-1	-1	0	;
	8	10	50.0	-1	-1	-1	-1	-1	0	;
	8	11	50.0	-1	-1	-1	-1	-1	0	;
	8	12	50.0	-1	-1	-1	-1	-1	0	;
	8	13	50.0	-1	-1	-1	-1	-1	0	;
	8	14	50.0	-1	-1	-1	-1	-1	0	;
	8	15	50.0	-1	-1	-1	-1	-1	0	;
	8	16	50.0	-1	-1	-1	-1	-1	0	;
	8	17	50.0	-1	-1	-1	-1	-1	0	;
	8	18	50.0	-1	-1	-1	-1	-1	0	;
	9	10	50.0	-1	-1	-1	-1	-1	0	;
	9	11	50.0	-1	-1	-1	-1	-1	0	;
	9	12	50.0	-1	-1	-1	-1	-1	0	;
	9	13	50.0	-1	-1	-1	-1	-1	0	;
	9	14	50.0	-1	-1	-1	-1	-1	0	;
	9	15	50.0	-1	-1	-1	-1	-1	0	;
	9	16	50.0	-1	-1	-1	-1	-1	0	;
	9	17	50.0	-1	-1	-1	-1	-1	0	;
	9	18	50.0	-1	-1	-1	-1	-1	0	;
	1	19	1.0	-1	0	-1	0	-1	0	;
	2	20	1.0	-1	0	-1	0	-1	0	;
	3	21	1.0	-1	0	-1	0	-1	0	;
	4	22	1.0	-1	0	-1	0	-1	0	;
	5	23	1.0	-1	0	-1	0	-1	0	;
	6	24	1.0	-1	0	-1	0	-1	0	;
	7	25	1.0	-1	0	-1	0	-1	0	;
	8	26	1.0	-1	0	-1	0	-1	0	;
	9	27	1.0	-1	0	-1	0	-1	0	;
	1	28	1.0	-1	1	-1	0	-1	0	;
	2	29	1.0	-1	1	-1	0	-1	0	;
	3	30	1.0	-1	1	-1	0	-1	0	;
	4	31	1.0	-1	1	-1	0	-1	0	;
	5	32	1.0	-1	1	-1	0	-1	0	;
	6	33	1.0	-1	1	-1	0	-1	0	;
	7	34	1.0	-1	1	-1	0	-1	0	;
	8	35	1.0	-1	1	-1	0	-1	0	;
	9	36	1.0	-1	1	-1	0	-1	0	;
	1	37	1.0	-1	2	-1	0	-1	0	;
	2	38	1.0	-1	2	-1	0	-1	0	;
	3	39	1.0	-1	2	-1	0	-1	0	;
	4	40	1.0	-1	2	-1	0	-1	0	;
	5	41	1.0	-1	2	-1	0	-1	0	;
	6	42	1.0	-1	2	-1	0	-1	0	;
	7	43	1.0	-1	2	-1	0	-1	0	;
	8	44	1.0	-1	2	-1	0	-1	0	;
	9	45	1.0	-1	2	-1	0	-1	0	;
	1	46	1.0	-1	3	-1	0	-1	0	;
	2	47	1.0	-1	3	-1	0	-1	0	;
	3	48	1.0	-1	3	-1	0	-1	0	;
	4	49	1.0	-1	3	-1	0	-1	0	;
	5	50	1.0	-1	3	-1	0	-1	0	;
	6	51	1.0	-1	3	-1	0	-1	0	;
	7	52	1.0	-1	3	-1	0	-1	0	;
	8	53	1.0	-1	3	-1	0	-1	0	;
	9	54	1.0	-1	3	-1	0	-1	0	;
	1	55	1.0	-1	4	-1	0	-1	0	;
	2	56	1.0	-1	4	-1	0	-1	0	;
	3	57	1.0	-1	4	-1	0	-1	0	;
	4	58	1.0	-1	4	-1	0	-1	0	;
	5	59	1.0	-1	4	-1	0	-1	0	;
	6	60	1.0	-1	4	-1	0	-1	0	;
	7	61	1.0	-1	4	-1	0	-1	0	;
	8	62	1.0	-1	4	-1	0	-1	0	;
	9	63	1.0	-1	4	-1	0	-1	0	;
	1	64	1.0	-1	5	-1	0	-1	0	;
	2	65	1.0	-1	5	-1	0	-1	0	;
	3	66	1.0	-1	5	-1	0	-1	0	;
	4	67	1.0	-1	5	-1	0	-1	0	;
	5	68	1.0	-1	5	-1	0	-1	0	;
	6	69	1.0	-1	5	-1	0	-1	0	;
	7	70	1.0	-1	5	-1	0	-1	0	;
	8	71	1.0	-1	5	-1	0	-1	0	;
	9	72	1.0	-1	5	-1	0	-1	0	;
	1	73	1.0	-1	6	-1	0	-1	0	;
	2	74	1.0	-1	6	-1	0	-1	0	;
	3	75	1.0	-1	6	-1	0	-1	0	;
	4	76	1.0	-1	6	-1	0	-1	0	;
	5	77	1.0	-1	6	-1	0	-1	0	;
	6	78	1.0	-1	6	-1	0	-1	0	;
	7	79	1.0	-1	6	-1	0	-1	0	;
	8	80	1.0	-1	6	-1	0	-1	0	;
	9	81	1.0	-1	6	-1	0	-1	0	;
	1	82	1.0	-1	7	-1	0	-1	0	;
	2	83	1.0	-1	7	-1	0	-1	0	;
	3	84	1.0	-1	7	-1	0	-1	0	;
	4	85	1.0	-1	7	-1	0	-1	0	;
	5	86	1.0	-1	7	-1	0	-1	0	;
	6	87	1.0	-1	7	-1	0	-1	0	;
	7	88	1.0	-1	7	-1	0	-1	0	;
	8	89	1.0	-1	7	-1	0	-1	0	;
	9	90	1.0	-1	7	-1	0	-1	0	;
	1	91	1.0	-1	8	-1	0	-1	0	;
	2	92	1.0	-1	8	-1	0	-1	0	;
	3	93	1.0	-1	8	-1	0	-1	0	;
	4	94	1.0	-1	8	-1	0	-1	0	;
	5	95	1.0	-1	8	-1	0	-1	0	;
	6	96	1.0	-1	8	-1	0	-1	0	;
	7	97	1.0	-1	8	-1	0	-1	0	;
	8	98	1.0	-1	8	-1	0	-1	0	;
	9	99	1.0	-1	8	-1	0	-1	0	;
	1	100	1.0	-1	9	-1	0	-1	0	;
	2	101	1.0	-1	9	-1	0	-1	0	;
	3	102	1.0	-1	9	-1	0	-1	0	;
	4	103	1.0	-1	9	-1	0	-1	0	;
	5	104	1.0	-1	9	-1	0	-1	0	;
	6	105	1.0	-1	9	-1	0	-1	0	;
	7	106	1.0	-1	9	-1	0	-1	0	;
	8	107	1.0	-1	9	-1	0	-1	0	;
	9	108	1.0	-1	9	-1	0	-1	0	;
	1	109	1.0	-1	10	-1	0	-1	0	;
	2	110	1.0	-1	10	-1	0	-1	0	;
	3	111	1.0	-1	10	-1	0	-1	0	;
	4	112	1.0	-1	10	-1	0	-1	0	;
	5	113	1.0	-1	10	-1	0	-1	0	;
	6	114	1.0	-1	10	-1	0	-1	0	;
	7	115	1.0	-1	10	-1	0	-1	0	;
	8	116	1.0	-1	10	-1	0	-1	0	;
	9	117	1.0	-1	10	-1	0	-1	0	;
	1	118	1.0	-1	11	-1	0	-1	0	;
	2	119	1.0	-1	11	-1	0	-1	0	;
	3	120	1.0	-1	11	-1	0	-1	0	;
	4	121	1.0	-1	11	-1	0	-1	0	;
	5	122	1.0	-1	11	-1	0	-1	0	;
	6	123	1.0	-1	11	-1	0	-1	0	;
	7	124	1.0	-1	11	-1	0	-1	0	;
	8	125	1.0	-1	11	-1	0	-1	0	;
	9	126	1.0	-1	11	-1	0	-1	0	;
	1	127	1.0	-1	12	-1	0	-1	0	;
	2	128	1.0	-1	12	-1	0	-1	0	;
	3	129	1.0	-1	12	-1	0	-1	0	;
	4	130	1.0	-1	12	-1	0	-1	0	;
	5	131	1.0	-1	12	-1	0	-1	0	;
	6	132	1.0	-1	12	-1	0	-1	0	;
	7	133	1.0	-1	12	-1	0	-1	0	;
	8	134	1.0	-1	12	-1	0	-1	0	;
	9	135	1.0	-1	12	-1	0	-1	0	;
	1	136	1.0	-1	13	-1	0	-1	0	;
	2	137	1.0	-1	13	-1	0	-1	0	;
	3	138	1.0	-1	13	-1	0	-1	0	;
	4	139	1.0	-1	13	-1	0	-1	0	;
	5	140	1.0	-1	13	-1	0	-1	0	;
	6	141	1.0	-1	13	-1	0	-1	0	;
	7	142	1.0	-1	13	-1	0	-1	0	;
	8	143	1.0	-1	13	-1	0	-1	0	;
	9	144	1.0	-1	13	-1	0	-1	0	;
	1	145	1.0	-1	14	-1	0	-1	0	;
	2	146	1.0	-1	14	-1	0	-1	0	;
	3	147	1.0	-1	14	-1	0	-1	0	;
	4	148	1.0	-1	14	-1	0	-1	0	;
	5	149	1.0	-1	14	-1	0	-1	0	;
	6	150	1.0	-1	14	-1	0	-1	0	;
	7	151	1.0	-1	14	-1	0	-1	0	;
	8	152	1.0	-1	14	-1	0	-1	0	;
	9	153	1.0	-1	14	-1	0	-1	0	;
	1	154	1.0	-1	15	-1	0	-1	0	;
	2	155	1.0	-1	15	-1	0	-1	0	;
	3	156	1.0	-1	15	-1	0	-1	0	;
	4	157	1.0	-1	15	-1	0	-1	0	;
	5	158	1.0	-1	15	-1	0	-1	0	;
	6	159	1.0	-1	15	-1	0	-1	0	;
	7	160	1.0	-1	15	-1	0	-1	0	;
	8	161	1.0	-1	15	-1	0	-1	0	;
	9	162	1.0	-1	15	-1	0	-1	0	;
	1	163	1.0	-1	16	-1	0	-1	0	;
	2	164	1.0	-1	16	-1	0	-1	0	;
	3	165	1.0	-1	16	-1	0	-1	0	;
	4	166	1.0	-1	16	-1	0	-1	0	;
	5	167	1.0	-1	16	-1	0	-1	0	;
	6	168	1.0	-1	16	-1	0	-1	0	;
	7	169	1.0	-1	16	-1	0	-1	0	;
	8	170	1.0	-1	16	-1	0	-1	0	;
	9	171	1.0	-1	16	-1	0	-1	0	;
	1	172	1.0	-1	17	-1	0	-1	0	;
	2	173	1.0	-1	17	-1	0	-1	0	;
	3	174	1.0	-1	17	-1	0	-1	0	;
	4	175	1.0	-1	17	-1	0	-1	0	;
	5	176	1.0	-1	17	-1	0	-1	0	;
	6	177	1.0	-1	17	-1	0	-1	0	;
	7	178	1.0	-1	17	-1	0	-1	0	;
	8	179	1.0	-1	17	-1	0	-1	0	;
	9	180	1.0	-1	17	-1	0	-1	0	;
	1	181	1.0	-1	18	-1	0	-1	0	;
	2	182	1.0	-1	18	-1	0	-1	0	;
	3	183	1.0	-1	18	-1	0	-1	0	;
	4	184	1.0	-1	18	-1	0	-1	0	;
	5	185	1.0	-1	18	-1	0	-1	0	;
	6	186	1.0	-1	18	-1	0	-1	0	;
	7	187	1.0	-1	18	-1	0	-1	0	;
	8	188	1.0	-1	18	-1	0	-1	0	;
	9	189	1.0	-1	18	-1	0	-1	0	;
	1	190	1.0	-1	19	-1	0	-1	0	;
	2	191	1.0	-1	19	-1	0	-1	0	;
	3	192	1.0	-1	19	-1	0	-1	0	;
	4	193	1.0	-1	19	-1	0	-1	0	;
	5	194	1.0	-1	19	-1	0	-1	0	;
	6	195	1.0	-1	19	-1	0	-1	0	;
	7	196	1.0	-1	19	-1	0	-1	0	;
	8	197	1.0	-1	19	-1	0	-1	0	;
	9	198	1.0	-1	19	-1	0	-1	0	;
	19	10	6.0	-1	0	-1	0	-1	0	;
	20	11	6.0	-1	0	-1	0	-1	0	;
	21	12	6.0	-1	0	-1	0	-1	0	;
	22	13	6.0	-1	0	-1	0	-1	0	;
	23	14	6.0	-1	0	-1	0	-1	0	;
	24	15	6.0	-1	0	-1	0	-1	0	;
	25	16	6.0	-1	0	-1	0	-1	0	;
	26	17	6.0	-1	0	-1	0	-1	0	;
	27	18	6.0	-1	0	-1	0	-1	0	;
	28	10	5.5	-1	1	-1	0	-1	0	;
	29	11	5.5	-1	1	-1	0	-1	0	;
	30	12	5.5	-1	1	-1	0	-1	0	;
	31	13	5.5	-1	1	-1	0	-1	0	;
	32	14	5.5	-1	1	-1	0	-1	0	;
	33	15	5.5	-1	1	-1	0	-1	0	;
	34	16	5.5	-1	1	-1	0	-1	0	;
	35	17	5.5	-1	1	-1	0	-1	0	;
	36	18	5.5	-1	1	-1	0	-1	0	;
	37	10	5.0	-1	2	-1	0	-1	0	;
	38	11	5.0	-1	2	-1	0	-1	0	;
	39	12	5.0	-1	2	-1	0	-1	0	;
	40	13	5.0	-1	2	-1	0	-1	0	;
	41	14	5.0	-1	2	-1	0	-1	0	;
	42	15	5.0	-1	2	-1	0	-1	0	;
	43	16	5.0	-1	2	-1	0	-1	0	;
	44	17	5.0	-1	2	-1	0	-1	0	;
	45	18	5.0	-1	2	-1	0	-1	0	;
	46	10	4.5	-1	3	-1	0	-1	0	;
	47	11	4.5	-1	3	-1	0	-1	0	;
	48	12	4.5	-1	3	-1	0	-1	0	;
	49	13	4.5	-1	3	-1	0	-1	0	;
	50	14	4.5	-1	3	-1	0	-1	0	;
	51	15	4.5	-1	3	-1	0	-1	0	;
	52	16	4.5	-1	3	-1	0	-1	0	;
	53	17	4.5	-1	3	-1	0	-1	0	;
	54	18	4.5	-1	3	-1	0	-1	0	;
	55	10	4.0	-1	4	-1	0	-1	0	;
	56	11	4.0	-1	4	-1	0	-1	0	;
	57	12	4.0	-1	4	-1	0	-1	0	;
	58	13	4.0	-1	4	-1	0	-1	0	;
	59	14	4.0	-1	4	-1	0	-1	0	;
	60	15	4.0	-1	4	-1	0	-1	0	;
	61	16	4.0	-1	4	-1	0	-1	0	;
	62	17	4.0	-1	4	-1	0	-1	0	;
	63	18	4.0	-1	4	-1	0	-1	0	;
	64	10	3.5	-1	5	-1	0	-1	0	;
	65	11	3.5	-1	5	-1	0	-1	0	;
	66	12	3.5	-1	5	-1	0	-1	0	;
	67	13	3.5	-1	5	-1	0	-1	0	;
	68	14	3.5	-1	5	-1	0	-1	0	;
	69	15	3.5	-1	5	-1	0	-1	0	;
	70	16	3.5	-1	5	-1	0	-1	0	;
	71	17	3.5	-1	5	-1	0	-1	0	;
	72	18	3.5	-1	5	-1	0	-1	0	;
	73	10	3.0	-1	6	-1	0	-1	0	;
	74	11	3.0	-1	6	-1	0	-1	0	;
	75	12	3.0	-1	6	-1	0	-1	0	;
	76	13	3.0	-1	6	-1	0	-1	0	;
	77	14	3.0	-1	6	-1	0	-1	0	;
	78	15	3.0	-1	6	-1	0	-1	0	;
	79	16	3.0	-1	6	-1	0	-1	0	;
	80	17	3.0	-1	6	-1	0	-1	0	;
	81	18	3.0	-1	6	-1	0	-1	0	;
	82	10	2.5	-1	7	-1	0	-1	0	;
	83	11	2.5	-1	7	-1	0	-1	0	;
	84	12	2.5	-1	7	-1	0	-1	0	;
	85	13	2.5	-1	7	-1	0	-1	0	;
	86	14	2.5	-1	7	-1	0	-1	0	;
	87	15	2.5	-1	7	-1	0	-1	0	;
	88	16	2.5	-1	7	-1	0	-1	0	;
	89	17	2.5	-1	7	-1	0	-1	0	;
	90	18	2.5	-1	7	-1	0	-1	0	;
	91	10	2.0	-1	8	-1	0	-1	0	;
	92	11	2.0	-1	8	-1	0	-1	0	;
	93	12	2.0	-1	8	-1	0	-1	0	;
	94	13	2.0	-1	8	-1	0	-1	0	;
	95	14	2.0	-1	8	-1	0	-1	0	;
	96	15	2.0	-1	8	-1	0	-1	0	;
	97	16	2.0	-1	8	-1	0	-1	0	;
	98	17	2.0	-1	8	-1	0	-1	0	;
	99	18	2.0	-1	8	-1	0	-1	0	;
	100	10	1.5	-1	9	-1	0	-1	0	;
	101	11	1.5	-1	9	-1	0	-1	0	;
	102	12	1.5	-1	9	-1	0	-1	0	;
	103	13	1.5	-1	9	-1	0	-1	0	;
	104	14	1.5	-1	9	-1	0	-1	0	;
	105	15	1.5	-1	9	-1	0	-1	0	;
	106	16	1.5	-1	9	-1	0	-1	0	;
	107	17	1.5	-1	9	-1	0	-1	0	;
	108	18	1.5	-1	9	-1	0	-1	0	;
	109	10	1.0	-1	10	-1	0	-1	0	;
	110	11	1.0	-1	10	-1	0	-1	0	;
	111	12	1.0	-1	10	-1	0	-1	0	;
	112	13	1.0	-1	10	-1	0	-1	0	;
	113	14	1.0	-1	10	-1	0	-1	0	;
	114	15	1.0	-1	10	-1	0	-1	0	;
	115	16	1.0	-1	10	-1	0	-1	0	;
	116	17	1.0	-1	10	-1	0	-1	0	;
	117	18	1.0	-1	10	-1	0	-1	0	;
	118	10	0.5	-1	11	-1	0	-1	0	;
	119	11	0.5	-1	11	-1	0	-1	0	;
	120	12	0.5	-1	11	-1	0	-1	0	;
	121	13	0.5	-1	11	-1	0	-1	0	;
	122	14	0.5	-1	11	-1	0	-1	0	;
	123	15	0.5	-1	11	-1	0	-1	0	;
	124	16	0.5	-1	11	-1	0	-1	0	;
	125	17	0.5	-1	11	-1	0	-1	0	;
	126	18	0.5	-1	11	-1	0	-1	0	;
	127	10	0.0	-1	12	-1	0	-1	0	;
	128	11	0.0	-1	12	-1	0	-1	0	;
	129	12	0.0	-1	12	-1	0	-1	0	;
	130	13	0.0	-1	12	-1	0	-1	0	;
	131	14	0.0	-1	12	-1	0	-1	0	;
	132	15	0.0	-1	12	-1	0	-1	0	;
	133	16	0.0	-1	12	-1	0	-1	0	;
	134	17	0.0	-1	12	-1	0	-1	0	;
	135	18	0.0	-1	12	-1	0	-1	0	;
	136	10	1.0	-1	13	-1	0	-1	0	;
	137	11	1.0	-1	13	-1	0	-1	0	;
	138	12	1.0	-1	13	-1	0	-1	0	;
	139	13	1.0	-1	13	-1	0	-1	0	;
	140	14	1.0	-1	13	-1	0	-1	0	;
	141	15	1.0	-1	13	-1	0	-1	0	;
	142	16	1.0	-1	13	-1	0	-1	0	;
	143	17	1.0	-1	13	-1	0	-1	0	;
	144	18	1.0	-1	13	-1	0	-1	0	;
	145	10	2.0	-1	14	-1	0	-1	0	;
	146	11	2.0	-1	14	-1	0	-1	0	;
	147	12	2.0	-1	14	-1	0	-1	0	;
	148	13	2.0	-1	14	-1	0	-1	0	;
	149	14	2.0	-1	14	-1	0	-1	0	;
	150	15	2.0	-1	14	-1	0	-1	0	;
	151	16	2.0	-1	14	-1	0	-1	0	;
	152	17	2.0	-1	14	-1	0	-1	0	;
	153	18	2.0	-1	14	-1	0	-1	0	;
	154	10	3.0	-1	15	-1	0	-1	0	;
	155	11	3.0	-1	15	-1	0	-1	0	;
	156	12	3.0	-1	15	-1	0	-1	0	;
	157	13	3.0	-1	15	-1	0	-1	0	;
	158	14	3.0	-1	15	-1	0	-1	0	;
	159	15	3.0	-1	15	-1	0	-1	0	;
	160	16	3.0	-1	15	-1	0	-1	0	;
	161	17	3.0	-1	15	-1	0	-1	0	;
	162	18	3.0	-1	15	-1	0	-1	0	;
	163	10	4.0	-1	16	-1	0	-1	0	;
	164	11	4.0	-1	16	-1	0	-1	0	;
	165	12	4.0	-1	16	-1	0	-1	0	;
	166	13	4.0	-1	16	-1	0	-1	0	;
	167	14	4.0	-1	16	-1	0	-1	0	;
	168	15	4.0	-1	16	-1	0	-1	0	;
	169	16	4.0	-1	16	-1	0	-1	0	;
	170	17	4.0	-1	16	-1	0	-1	0	;
	171	18	4.0	-1	16	-1	0	-1	0	;
	172	10	5.0	-1	17	-1	0	-1	0	;
	173	11	5.0	-1	17	-1	0	-1	0	;
	174	12	5.0	-1	17	-1	0	-1	0	;
	175	13	5.0	-1	17	-1	0	-1	0	;
	176	14	5.0	-1	17	-1	0	-1	0	;
	177	15	5.0	-1	17	-1	0	-1	0	;
	178	16	5.0	-1	17	-1	0	-1	0	;
	179	17	5.0	-1	17	-1	0	-1	0	;
	180	18	5.0	-1	17	-1	0	-1	0	;
	181	10	6.0	-1	18	-1	0	-1	0	;
	182	11	6.0	-1	18	-1	0	-1	0	;
	183	12	6.0	-1	18	-1	0	-1	0	;
	184	13	6.0	-1	18	-1	0	-1	0	;
	185	14	6.0	-1	18	-1	0	-1	0	;
	186	15	6.0	-1	18	-1	0	-1	0	;
	187	16	6.0	-1	18	-1	0	-1	0	;
	188	17	6.0	-1	18	-1	0	-1	0	;
	189	18	6.0	-1	18	-1	0	-1	0	;
	190	10	7.0	-1	19	-1	0	-1	0	;
	191	11	7.0	-1	19	-1	0	-1	0	;
	192	12	7.0	-1	19	-1	0	-1	0	;
	193	13	7.0	-1	19	-1	0	-1	0	;
	194	14	7.0	-1	19	-1	0	-1	0	;
	195	15	7.0	-1	19	-1	0	-1	0	;
	196	16	7.0	-1	19	-1	0	-1	0	;
	197	17	7.0	-1	19	-1	0	-1	0	;
	198	18	7.0	-1	19	-1	0	-1	0	;
	19	208	1.0	-1	0	-1	-1	2	1	;
	20	209	1.0	-1	0	-1	-1	2	1	;
	21	210	1.0	-1	0	-1	-1	2	1	;
	22	211	1.0	-1	0	-1	-1	2	1	;
	23	212	1.0	-1	0	-1	-1	2	1	;
	24	213	1.0	-1	0	-1	-1	2	1	;
	25	214	1.0	-1	0	-1	-1	2	1	;
	26	215	1.0	-1	0	-1	-1	2	1	;
	27	216	1.0	-1	0	-1	-1	2	1	;
	28	217	1.0	-1	1	-1	-1	2	1	;
	29	218	1.0	-1	1	-1	-1	2	1	;
	30	219	1.0	-1	1	-1	-1	2	1	;
	31	220	1.0	-1	1	-1	-1	2	1	;
	32	221	1.0	-1	1	-1	-1	2	1	;
	33	222	1.0	-1	1	-1	-1	2	1	;
	34	223	1.0	-1	1	-1	-1	2	1	;
	35	224	1.0	-1	1	-1	-1	2	1	;
	36	225	1.0	-1	1	-1	-1	2	1	;
	37	226	1.0	-1	2	-1	-1	2	1	;
	38	227	1.0	-1	2	-1	-1	2	1	;
	39	228	1.0	-1	2	-1	-1	2	1	;
	40	229	1.0	-1	2	-1	-1	2	1	;
	41	230	1.0	-1	2	-1	-1	2	1	;
	42	231	1.0	-1	2	-1	-1	2	1	;
	43	232	1.0	-1	2	-1	-1	2	1	;
	44	233	1.0	-1	2	-1	-1	2	1	;
	45	234	1.0	-1	2	-1	-1	2	1	;
	46	235	1.0	-1	3	-1	-1	2	1	;
	47	236	1.0	-1	3	-1	-1	2	1	;
	48	237	1.0	-1	3	-1	-1	2	1	;
	49	238	1.0	-1	3	-1	-1	2	1	;
	50	239	1.0	-1	3	-1	-1	2	1	;
	51	240	1.0	-1	3	-1	-1	2	1	;
	52	241	1.0	-1	3	-1	-1	2	1	;
	53	242	1.0	-1	3	-1	-1	2	1	;
	54	243	1.0	-1	3	-1	-1	2	1	;
	55	244	1.0	-1	4	-1	-1	2	1	;
	56	245	1.0	-1	4	-1	-1	2	1	;
	57	246	1.0	-1	4	-1	-1	2	1	;
	58	247	1.0	-1	4	-1	-1	2	1	;
	59	248	1.0	-1	4	-1	-1	2	1	;
	60	249	1.0	-1	4	-1	-1	2	1	;
	61	250	1.0	-1	4	-1	-1	2	1	;
	62	251	1.0	-1	4	-1	-1	2	1	;
	63	252	1.0	-1	4	-1	-1	2	1	;
	64	253	1.0	-1	5	-1	-1	2	1	;
	65	254	1.0	-1	5	-1	-1	2	1	;
	66	255	1.0	-1	5	-1	-1	2	1	;
	67	256	1.0	-1	5	-1	-1	2	1	;
	68	257	1.0	-1	5	-1	-1	2	1	;
	69	258	1.0	-1	5	-1	-1	2	1	;
	70	259	1.0	-1	5	-1	-1	2	1	;
	71	260	1.0	-1	5	-1	-1	2	1	;
	72	261	1.0	-1	5	-1	-1	2	1	;
	73	262	1.0	-1	6	-1	-1	2	1	;
	74	263	1.0	-1	6	-1	-1	2	1	;
	75	264	1.0	-1	6	-1	-1	2	1	;
	76	265	1.0	-1	6	-1	-1	2	1	;
	77	266	1.0	-1	6	-1	-1	2	1	;
	78	267	1.0	-1	6	-1	-1	2	1	;
	79	268	1.0	-1	6	-1	-1	2	1	;
	80	269	1.0	-1	6	-1	-1	2	1	;
	81	270	1.0	-1	6	-1	-1	2	1	;
	82	271	1.0	-1	7	-1	-1	2	1	;
	83	272	1.0	-1	7	-1	-1	2	1	;
	84	273	1.0	-1	7	-1	-1	2	1	;
	85	274	1.0	-1	7	-1	-1	2	1	;
	86	275	1.0	-1	7	-1	-1	2	1	;
	87	276	1.0	-1	7	-1	-1	2	1	;
	88	277	1.0	-1	7	-1	-1	2	1	;
	89	278	1.0	-1	7	-1	-1	2	1	;
	90	279	1.0	-1	7	-1	-1	2	1	;
	91	280	1.0	-1	8	-1	-1	2	1	;
	92	281	1.0	-1	8	-1	-1	2	1	;
	93	282	1.0	-1	8	-1	-1	2	1	;
	94	283	1.0	-1	8	-1	-1	2	1	;
	95	284	1.0	-1	8	-1	-1	2	1	;
	96	285	1.0	-1	8	-1	-1	2	1	;
	97	286	1.0	-1	8	-1	-1	2	1	;
	98	287	1.0	-1	8	-1	-1	2	1	;
	99	288	1.0	-1	8	-1	-1	2	1	;
	100	289	1.0	-1	9	-1	-1	2	1	;
	101	290	1.0	-1	9	-1	-1	2	1	;
	102	291	1.0	-1	9	-1	-1	2	1	;
	103	292	1.0	-1	9	-1	-1	2	1	;
	104	293	1.0	-1	9	-1	-1	2	1	;
	105	294	1.0	-1	9	-1	-1	2	1	;
	106	295	1.0	-1	9	-1	-1	2	1	;
	107	296	1.0	-1	9	-1	-1	2	1	;
	108	297	1.0	-1	9	-1	-1	2	1	;
	109	298	1.0	-1	10	-1	-1	2	1	;
	110	299	1.0	-1	10	-1	-1	2	1	;
	111	300	1.0	-1	10	-1	-1	2	1	;
	112	301	1.0	-1	10	-1	-1	2	1	;
	113	302	1.0	-1	10	-1	-1	2	1	;
	114	303	1.0	-1	10	-1	-1	2	1	;
	115	304	1.0	-1	10	-1	-1	2	1	;
	116	305	1.0	-1	10	-1	-1	2	1	;
	117	306	1.0	-1	10	-1	-1	2	1	;
	118	307	1.0	-1	11	-1	-1	2	1	;
	119	308	1.0	-1	11	-1	-1	2	1	;
	120	309	1.0	-1	11	-1	-1	2	1	;
	121	310	1.0	-1	11	-1	-1	2	1	;
	122	311	1.0	-1	11	-1	-1	2	1	;
	123	312	1.0	-1	11	-1	-1	2	1	;
	124	313	1.0	-1	11	-1	-1	2	1	;
	125	314	1.0	-1	11	-1	-1	2	1	;
	126	315	1.0	-1	11	-1	-1	2	1	;
	127	316	1.0	-1	12	-1	-1	2	1	;
	128	317	1.0	-1	12	-1	-1	2	1	;
	129	318	1.0	-1	12	-1	-1	2	1	;
	130	319	1.0	-1	12	-1	-1	2	1	;
	131	320	1.0	-1	12	-1	-1	2	1	;
	132	321	1.0	-1	12	-1	-1	2	1	;
	133	322	1.0	-1	12	-1	-1	2	1	;
	134	323	1.0	-1	12	-1	-1	2	1	;
	135	324	1.0	-1	12	-1	-1	2	1	;
	136	325	1.0	-1	13	-1	-1	2	1	;
	137	326	1.0	-1	13	-1	-1	2	1	;
	138	327	1.0	-1	13	-1	-1	2	1	;
	139	328	1.0	-1	13	-1	-1	2	1	;
	140	329	1.0	-1	13	-1	-1	2	1	;
	141	330	1.0	-1	13	-1	-1	2	1	;
	142	331	1.0	-1	13	-1	-1	2	1	;
	143	332	1.0	-1	13	-1	-1	2	1	;
	144	333	1.0	-1	13	-1	-1	2	1	;
	145	334	1.0	-1	14	-1	-1	2	1	;
	146	335	1.0	-1	14	-1	-1	2	1	;
	147	336	1.0	-1	14	-1	-1	2	1	;
	148	337	1.0	-1	14	-1	-1	2	1	;
	149	338	1.0	-1	14	-1	-1	2	1	;
	150	339	1.0	-1	14	-1	-1	2	1	;
	151	340	1.0	-1	14	-1	-1	2	1	;