<NUMBER OF ZONES> 18
<TOTAL OD FLOW> 10000.0
<END OF METADATA>



Origin  1
	10 :	114.0;	11 :	229.0;	12 :	58.0;	13 :	138.0;	14 :	215.0;
	15 :	181.0;	16 :	175.0;	17 :	172.0;	18 :	58.0;

Origin  2
	10 :	41.0;	11 :	185.0;	12 :	115.0;	13 :	238.0;	14 :	9.0;
	15 :	235.0;	16 :	128.0;	17 :	225.0;	18 :	81.0;

Origin  3
	10 :	179.0;	11 :	64.0;	12 :	27.0;	13 :	182.0;	14 :	158.0;
	15 :	144.0;	16 :	12.0;	17 :	19.0;	18 :	147.0;

Origin  4
	10 :	31.0;	11 :	30.0;	12 :	159.0;	13 :	144.0;	14 :	173.0;
	15 :	207.0;	16 :	48.0;	17 :	65.0;	18 :	41.0;

Origin  5
	10 :	66.0;	11 :	195.0;	12 :	143.0;	13 :	34.0;	14 :	215.0;
	15 :	141.0;	16 :	99.0;	17 :	72.0;	18 :	205.0;

Origin  6
	10 :	21.0;	11 :	127.0;	12 :	86.0;	13 :	52.0;	14 :	25.0;
	15 :	11.0;	16 :	84.0;	17 :	56.0;	18 :	158.0;

Origin  7
	10 :	210.0;	11 :	211.0;	12 :	227.0;	13 :	215.0;	14 :	153.0;
	15 :	16.0;	16 :	112.0;	17 :	94.0;	18 :	154.0;

Origin  8
	10 :	121.0;	11 :	226.0;	12 :	79.0;	13 :	213.0;	14 :	12.0;
	15 :	62.0;	16 :	98.0;	17 :	158.0;	18 :	238.0;

Origin  9
	10 :	140.0;	11 :	199.0;	12 :	168.0;	13 :	139.0;	14 :	71.0;
	15 :	164.0;	16 :	197.0;	17 :	80.0;	18 :	26.0;