<NUMBER OF ZONES> 26
<TOTAL OD FLOW> 10000.0
<END OF METADATA>



Origin  1
	14 :	70.0;	15 :	29.0;	16 :	44.0;	17 :	78.0;	18 :	117.0;
	19 :	12.0;	20 :	13.0;	21 :	16.0;	22 :	60.0;	23 :	12.0;
	24 :	50.0;	25 :	116.0;	26 :	80.0;

Origin  2
	14 :	62.0;	15 :	118.0;	16 :	123.0;	17 :	34.0;	18 :	94.0;
	19 :	65.0;	20 :	61.0;	21 :	116.0;	22 :	48.0;	23 :	91.0;
	24 :	8.0;	25 :	18.0;	26 :	100.0;

Origin  3
	14 :	54.0;	15 :	14.0;	16 :	117.0;	17 :	57.0;	18 :	61.0;
	19 :	66.0;	20 :	114.0;	21 :	75.0;	22 :	15.0;	23 :	32.0;
	24 :	37.0;	25 :	49.0;	26 :	111.0;

Origin  4
	14 :	49.0;	15 :	90.0;	16 :	54.0;	17 :	114.0;	18 :	120.0;
	19 :	102.0;	20 :	77.0;	21 :	43.0;	22 :	68.0;	23 :	112.0;
	24 :	19.0;	25 :	70.0;	26 :	92.0;

Origin  5
	14 :	77.0;	15 :	58.0;	16 :	52.0;	17 :	18.0;	18 :	40.0;
	19 :	43.0;	20 :	110.0;	21 :	59.0;	22 :	61.0;	23 :	60.0;
	24 :	40.0;	25 :	34.0;	26 :	72.0;

Origin  6
	14 :	2.0;	15 :	62.0;	16 :	14.0;	17 :	27.0;	18 :	76.0;
	19 :	37.0;	20 :	11.0;	21 :	2.0;	22 :	112.0;	23 :	49.0;
	24 :	13.0;	25 :	16.0;	26 :	55.0;

Origin  7
	14 :	42.0;	15 :	67.0;	16 :	26.0;	17 :	88.0;	18 :	48.0;
	19 :	49.0;	20 :	63.0;	21 :	50.0;	22 :	34.0;	23 :	80.0;
	24 :	46.0;	25 :	34.0;	26 :	50.0;

Origin  8
	14 :	45.0;	15 :	24.0;	16 :	48.0;	17 :	94.0;	18 :	48.0;
	19 :	18.0;	20 :	69.0;	21 :	110.0;	22 :	32.0;	23 :	21.0;
	24 :	105.0;	25 :	14.0;	26 :	62.0;

Origin  9
	14 :	99.0;	15 :	101.0;	16 :	49.0;	17 :	51.0;	18 :	107.0;
	19 :	27.0;	20 :	110.0;	21 :	31.0;	22 :	58.0;	23 :	88.0;
	24 :	76.0;	25 :	35.0;	26 :	13.0;

Origin  10
	14 :	99.0;	15 :	9.0;	16 :	14.0;	17 :	16.0;	18 :	93.0;
	19 :	84.0;	20 :	39.0;	21 :	110.0;	22 :	51.0;	23 :	4.0;
	24 :	118.0;	25 :	29.0;	26 :	37.0;

Origin  11
	14 :	74.0;	15 :	31.0;	16 :	54.0;	17 :	68.0;	18 :	5.0;
	19 :	76.0;	20 :	117.0;	21 :	72.0;	22 :	101.0;	23 :	9.0;
	24 :	5.0;	25 :	22.0;	26 :	89.0;

Origin  12
	14 :	92.0;	15 :	38.0;	16 :	62.0;	17 :	66.0;	18 :	8.0;
	19 :	94.0;	20 :	61.0;	21 :	74.0;	22 :	66.0;	23 :	81.0;
	24 :	47.0;	25 :	116.0;	26 :	116.0;

Origin  13
	14 :	66.0;	15 :	74.0;	16 :	65.0;	17 :	109.0;	18 :	53.0;
	19 :	49.0;	20 :	69.0;	21 :	63.0;	22 :	89.0;	23 :	1.0;
	24 :	18.0;	25 :	41.0;	26 :	97.0;