<NUMBER OF ZONES> 48
<NUMBER OF NODES> 480
<FIRST THRU NODE> 1
<NUMBER OF LINKS> 1444
<ORIGINAL HEADER> 
<END OF METADATA>


~	init_node	term_node	capacity	free_flow_time	original_link	time	;
	1	26	259.00200639999997	6	0	0	;
	1	27	234.0347319	4	1	0	;
	2	25	259.00200639999997	6	2	0	;
	2	30	49.58180928	5	3	0	;
	3	25	234.0347319	4	4	0	;
	3	28	171.1052372	4	5	0	;
	3	36	234.0347319	4	6	0	;
	4	29	177.82794099999998	2	7	0	;
	4	35	49.0882673	6	8	0	;
	4	27	171.1052372	4	9	0	;
	5	28	177.82794099999998	2	10	0	;
	5	30	49.47995469000001	4	11	0	;
	5	33	100.0	5	12	0	;
	6	26	49.58180928	5	13	0	;
	6	29	49.47995469000001	4	14	0	;
	6	32	48.98587646	2	15	0	;
	7	32	78.4181131	3	16	0	;
	7	42	234.0347319	2	17	0	;
	8	40	50.45822583	5	18	0	;
	8	33	50.50193156	10	19	0	;
	8	30	48.98587646	2	20	0	;
	8	31	78.4181131	3	21	0	;
	9	29	100.0	5	22	0	;
	9	32	50.50193156	10	23	0	;
	9	34	139.1578842	3	24	0	;
	10	41	49.93510694	8	25	0	;
	10	33	139.1578842	3	26	0	;
	10	35	100.0	5	27	0	;
	10	39	135.12001550000002	6	28	0	;
	10	40	48.54917717000001	4	29	0	;
	11	28	49.0882673	6	30	0	;
	11	34	100.0	5	31	0	;
	11	36	49.0882673	6	32	0	;
	11	38	48.76508287	4	33	0	;
	12	35	49.0882673	6	34	0	;
	12	37	259.00200639999997	3	35	0	;
	12	27	234.0347319	4	36	0	;
	13	48	50.91256152	4	37	0	;
	13	36	259.00200639999997	3	38	0	;
	14	35	48.76508287	4	39	0	;
	14	39	51.27526119	5	40	0	;
	14	47	49.247906050000005	4	41	0	;
	15	34	135.12001550000002	6	42	0	;
	15	38	51.27526119	5	43	0	;
	15	43	145.6475315	3	44	0	;
	15	46	95.99180565	3	45	0	;
	16	42	196.79896710000003	3	46	0	;
	16	41	52.299100630000005	2	47	0	;
	16	34	48.54917717000001	4	48	0	;
	16	32	50.45822583	5	49	0	;
	17	34	49.93510694	8	50	0	;
	17	40	52.299100630000005	2	51	0	;
	17	43	48.239508310000005	2	52	0	;
	18	31	234.0347319	2	53	0	;
	18	40	196.79896710000003	3	54	0	;
	18	44	234.0347319	4	55	0	;
	19	44	50.026075629999994	4	56	0	;
	19	41	48.239508310000005	2	57	0	;
	19	39	145.6475315	3	58	0	;
	20	42	234.0347319	4	59	0	;
	20	43	50.026075629999994	4	60	0	;
	20	45	50.599123399999996	6	61	0	;
	20	46	50.75697193	5	62	0	;
	21	44	50.599123399999996	6	63	0	;
	21	46	52.299100630000005	2	64	0	;
	21	48	48.85357564	3	65	0	;
	22	47	50.0	4	66	0	;
	22	45	52.299100630000005	2	67	0	;
	22	39	95.99180565	3	68	0	;
	22	44	50.75697193	5	69	0	;
	23	38	49.247906050000005	4	70	0	;
	23	46	50.0	4	71	0	;
	23	48	50.78508436	2	72	0	;
	24	45	48.85357564	3	73	0	;
	24	37	50.91256152	4	74	0	;
	24	47	50.78508436	2	75	0	;
	25	50	259.00200639999997	6	0	1	;
	25	51	234.0347319	4	1	1	;
	26	49	259.00200639999997	6	2	1	;
	26	54	49.58180928	5	3	1	;
	27	49	234.0347319	4	4	1	;
	27	52	171.1052372	4	5	1	;
	27	60	234.0347319	4	6	1	;
	28	53	177.82794099999998	2	7	1	;
	28	59	49.0882673	6	8	1	;
	28	51	171.1052372	4	9	1	;
	29	52	177.82794099999998	2	10	1	;
	29	54	49.47995469000001	4	11	1	;
	29	57	100.0	5	12	1	;
	30	50	49.58180928	5	13	1	;
	30	53	49.47995469000001	4	14	1	;
	30	56	48.98587646	2	15	1	;
	31	56	78.4181131	3	16	1	;
	31	66	234.0347319	2	17	1	;
	32	64	50.45822583	5	18	1	;
	32	57	50.50193156	10	19	1	;
	32	54	48.98587646	2	20	1	;
	32	55	78.4181131	3	21	1	;
	33	53	100.0	5	22	1	;
	33	56	50.50193156	10	23	1	;
	33	58	139.1578842	3	24	1	;
	34	65	49.93510694	8	25	1	;
	34	57	139.1578842	3	26	1	;
	34	59	100.0	5	27	1	;
	34	63	135.12001550000002	6	28	1	;
	34	64	48.54917717000001	4	29	1	;
	35	52	49.0882673	6	30	1	;
	35	58	100.0	5	31	1	;
	35	60	49.0882673	6	32	1	;
	35	62	48.76508287	4	33	1	;
	36	59	49.0882673	6	34	1	;
	36	61	259.00200639999997	3	35	1	;
	36	51	234.0347319	4	36	1	;
	37	72	50.91256152	4	37	1	;
	37	60	259.00200639999997	3	38	1	;
	38	59	48.76508287	4	39	1	;
	38	63	51.27526119	5	40	1	;
	38	71	49.247906050000005	4	41	1	;
	39	58	135.12001550000002	6	42	1	;
	39	62	51.27526119	5	43	1	;
	39	67	145.6475315	3	44	1	;
	39	70	95.99180565	3	45	1	;
	40	66	196.79896710000003	3	46	1	;
	40	65	52.299100630000005	2	47	1	;
	40	58	48.54917717000001	4	48	1	;
	40	56	50.45822583	5	49	1	;
	41	58	49.93510694	8	50	1	;
	41	64	52.299100630000005	2	51	1	;
	41	67	48.239508310000005	2	52	1	;
	42	55	234.0347319	2	53	1	;
	42	64	196.79896710000003	3	54	1	;
	42	68	234.0347319	4	55	1	;
	43	68	50.026075629999994	4	56	1	;
	43	65	48.239508310000005	2	57	1	;
	43	63	145.6475315	3	58	1	;
	44	66	234.0347319	4	59	1	;
	44	67	50.026075629999994	4	60	1	;
	44	69	50.599123399999996	6	61	1	;
	44	70	50.75697193	5	62	1	;
	45	68	50.599123399999996	6	63	1	;
	45	70	52.299100630000005	2	64	1	;
	45	72	48.85357564	3	65	1	;
	46	71	50.0	4	66	1	;
	46	69	52.299100630000005	2	67	1	;
	46	63	95.99180565	3	68	1	;
	46	68	50.75697193	5	69	1	;
	47	62	49.247906050000005	4	70	1	;
	47	70	50.0	4	71	1	;
	47	72	50.78508436	2	72	1	;
	48	69	48.85357564	3	73	1	;
	48	61	50.91256152	4	74	1	;
	48	71	50.78508436	2	75	1	;
	49	74	259.00200639999997	6	0	2	;
	49	75	234.0347319	4	1	2	;
	50	73	259.00200639999997	6	2	2	;
	50	78	49.58180928	5	3	2	;
	51	73	234.0347319	4	4	2	;
	51	76	171.1052372	4	5	2	;
	51	84	234.0347319	4	6	2	;
	52	77	177.82794099999998	2	7	2	;
	52	83	49.0882673	6	8	2	;
	52	75	171.1052372	4	9	2	;
	53	76	177.82794099999998	2	10	2	;
	53	78	49.47995469000001	4	11	2	;
	53	81	100.0	5	12	2	;
	54	74	49.58180928	5	13	2	;
	54	77	49.47995469000001	4	14	2	;
	54	80	48.98587646	2	15	2	;
	55	80	78.4181131	3	16	2	;
	55	90	234.0347319	2	17	2	;
	56	88	50.45822583	5	18	2	;
	56	81	50.50193156	10	19	2	;
	56	78	48.98587646	2	20	2	;
	56	79	78.4181131	3	21	2	;
	57	77	100.0	5	22	2	;
	57	80	50.50193156	10	23	2	;
	57	82	139.1578842	3	24	2	;
	58	89	49.93510694	8	25	2	;
	58	81	139.1578842	3	26	2	;
	58	83	100.0	5	27	2	;
	58	87	135.12001550000002	6	28	2	;
	58	88	48.54917717000001	4	29	2	;
	59	76	49.0882673	6	30	2	;
	59	82	100.0	5	31	2	;
	59	84	49.0882673	6	32	2	;
	59	86	48.76508287	4	33	2	;
	60	83	49.0882673	6	34	2	;
	60	85	259.00200639999997	3	35	2	;
	60	75	234.0347319	4	36	2	;
	61	96	50.91256152	4	37	2	;
	61	84	259.00200639999997	3	38	2	;
	62	83	48.76508287	4	39	2	;
	62	87	51.27526119	5	40	2	;
	62	95	49.247906050000005	4	41	2	;
	63	82	135.12001550000002	6	42	2	;
	63	86	51.27526119	5	43	2	;
	63	91	145.6475315	3	44	2	;
	63	94	95.99180565	3	45	2	;
	64	90	196.79896710000003	3	46	2	;
	64	89	52.299100630000005	2	47	2	;
	64	82	48.54917717000001	4	48	2	;
	64	80	50.45822583	5	49	2	;
	65	82	49.93510694	8	50	2	;
	65	88	52.299100630000005	2	51	2	;
	65	91	48.239508310000005	2	52	2	;
	66	79	234.0347319	2	53	2	;
	66	88	196.79896710000003	3	54	2	;
	66	92	234.0347319	4	55	2	;
	67	92	50.026075629999994	4	56	2	;
	67	89	48.239508310000005	2	57	2	;
	67	87	145.6475315	3	58	2	;
	68	90	234.0347319	4	59	2	;
	68	91	50.026075629999994	4	60	2	;
	68	93	50.599123399999996	6	61	2	;
	68	94	50.75697193	5	62	2	;
	69	92	50.599123399999996	6	63	2	;
	69	94	52.299100630000005	2	64	2	;
	69	96	48.85357564	3	65	2	;
	70	95	50.0	4	66	2	;
	70	93	52.299100630000005	2	67	2	;
	70	87	95.99180565	3	68	2	;
	70	92	50.75697193	5	69	2	;
	71	86	49.247906050000005	4	70	2	;
	71	94	50.0	4	71	2	;
	71	96	50.78508436	2	72	2	;
	72	93	48.85357564	3	73	2	;
	72	85	50.91256152	4	74	2	;
	72	95	50.78508436	2	75	2	;
	73	98	259.00200639999997	6	0	3	;
	73	99	234.0347319	4	1	3	;
	74	97	259.00200639999997	6	2	3	;
	74	102	49.58180928	5	3	3	;
	75	97	234.0347319	4	4	3	;
	75	100	171.1052372	4	5	3	;
	75	108	234.0347319	4	6	3	;
	76	101	177.82794099999998	2	7	3	;
	76	107	49.0882673	6	8	3	;
	76	99	171.1052372	4	9	3	;
	77	100	177.82794099999998	2	10	3	;
	77	102	49.47995469000001	4	11	3	;
	77	105	100.0	5	12	3	;
	78	98	49.58180928	5	13	3	;
	78	101	49.47995469000001	4	14	3	;
	78	104	48.98587646	2	15	3	;
	79	104	78.4181131	3	16	3	;
	79	114	234.0347319	2	17	3	;
	80	112	50.45822583	5	18	3	;
	80	105	50.50193156	10	19	3	;
	80	102	48.98587646	2	20	3	;
	80	103	78.4181131	3	21	3	;
	81	101	100.0	5	22	3	;
	81	104	50.50193156	10	23	3	;
	81	106	139.1578842	3	24	3	;
	82	113	49.93510694	8	25	3	;
	82	105	139.1578842	3	26	3	;
	82	107	100.0	5	27	3	;
	82	111	135.12001550000002	6	28	3	;
	82	112	48.54917717000001	4	29	3	;
	83	100	49.0882673	6	30	3	;
	83	106	100.0	5	31	3	;
	83	108	49.0882673	6	32	3	;
	83	110	48.76508287	4	33	3	;
	84	107	49.0882673	6	34	3	;
	84	109	259.00200639999997	3	35	3	;
	84	99	234.0347319	4	36	3	;
	85	120	50.91256152	4	37	3	;
	85	108	259.00200639999997	3	38	3	;
	86	107	48.76508287	4	39	3	;
	86	111	51.27526119	5	40	3	;
	86	119	49.247906050000005	4	41	3	;
	87	106	135.12001550000002	6	42	3	;
	87	110	51.27526119	5	43	3	;
	87	115	145.6475315	3	44	3	;
	87	118	95.99180565	3	45	3	;
	88	114	196.79896710000003	3	46	3	;
	88	113	52.299100630000005	2	47	3	;
	88	106	48.54917717000001	4	48	3	;
	88	104	50.45822583	5	49	3	;
	89	106	49.93510694	8	50	3	;
	89	112	52.299100630000005	2	51	3	;
	89	115	48.239508310000005	2	52	3	;
	90	103	234.0347319	2	53	3	;
	90	112	196.79896710000003	3	54	3	;
	90	116	234.0347319	4	55	3	;
	91	116	50.026075629999994	4	56	3	;
	91	113	48.239508310000005	2	57	3	;
	91	111	145.6475315	3	58	3	;
	92	114	234.0347319	4	59	3	;
	92	115	50.026075629999994	4	60	3	;
	92	117	50.599123399999996	6	61	3	;
	92	118	50.75697193	5	62	3	;
	93	116	50.599123399999996	6	63	3	;
	93	118	52.299100630000005	2	64	3	;
	93	120	48.85357564	3	65	3	;
	94	119	50.0	4	66	3	;
	94	117	52.299100630000005	2	67	3	;
	94	111	95.99180565	3	68	3	;
	94	116	50.75697193	5	69	3	;
	95	110	49.247906050000005	4	70	3	;
	95	118	50.0	4	71	3	;
	95	120	50.78508436	2	72	3	;
	96	117	48.85357564	3	73	3	;
	96	109	50.91256152	4	74	3	;
	96	119	50.78508436	2	75	3	;
	97	122	259.00200639999997	6	0	4	;
	97	123	234.0347319	4	1	4	;
	98	121	259.00200639999997	6	2	4	;
	98	126	49.58180928	5	3	4	;
	99	121	234.0347319	4	4	4	;
	99	124	171.1052372	4	5	4	;
	99	132	234.0347319	4	6	4	;
	100	125	177.82794099999998	2	7	4	;
	100	131	49.0882673	6	8	4	;
	100	123	171.1052372	4	9	4	;
	101	124	177.82794099999998	2	10	4	;
	101	126	49.47995469000001	4	11	4	;
	101	129	100.0	5	12	4	;
	102	122	49.58180928	5	13	4	;
	102	125	49.47995469000001	4	14	4	;
	102	128	48.98587646	2	15	4	;
	103	128	78.4181131	3	16	4	;
	103	138	234.0347319	2	17	4	;
	104	136	50.45822583	5	18	4	;
	104	129	50.50193156	10	19	4	;
	104	126	48.98587646	2	20	4	;
	104	127	78.4181131	3	21	4	;
	105	125	100.0	5	22	4	;
	105	128	50.50193156	10	23	4	;
	105	130	139.1578842	3	24	4	;
	106	137	49.93510694	8	25	4	;
	106	129	139.1578842	3	26	4	;
	106	131	100.0	5	27	4	;
	106	135	135.12001550000002	6	28	4	;
	106	136	48.54917717000001	4	29	4	;
	107	124	49.0882673	6	30	4	;
	107	130	100.0	5	31	4	;
	107	132	49.0882673	6	32	4	;
	107	134	48.76508287	4	33	4	;
	108	131	49.0882673	6	34	4	;
	108	133	259.00200639999997	3	35	4	;
	108	123	234.0347319	4	36	4	;
	109	144	50.91256152	4	37	4	;
	109	132	259.00200639999997	3	38	4	;
	110	131	48.76508287	4	39	4	;
	110	135	51.27526119	5	40	4	;
	110	143	49.247906050000005	4	41	4	;
	111	130	135.12001550000002	6	42	4	;
	111	134	51.27526119	5	43	4	;
	111	139	145.6475315	3	44	4	;
	111	142	95.99180565	3	45	4	;
	112	138	196.79896710000003	3	46	4	;
	112	137	52.299100630000005	2	47	4	;
	112	130	48.54917717000001	4	48	4	;
	112	128	50.45822583	5	49	4	;
	113	130	49.93510694	8	50	4	;
	113	136	52.299100630000005	2	51	4	;
	113	139	48.239508310000005	2	52	4	;
	114	127	234.0347319	2	53	4	;
	114	136	196.79896710000003	3	54	4	;
	114	140	234.0347319	4	55	4	;
	115	140	50.026075629999994	4	56	4	;
	115	137	48.239508310000005	2	57	4	;
	115	135	145.6475315	3	58	4	;
	116	138	234.0347319	4	59	4	;
	116	139	50.026075629999994	4	60	4	;
	116	141	50.599123399999996	6	61	4	;
	116	142	50.75697193	5	62	4	;
	117	140	50.599123399999996	6	63	4	;
	117	142	52.299100630000005	2	64	4	;
	117	144	48.85357564	3	65	4	;
	118	143	50.0	4	66	4	;
	118	141	52.299100630000005	2	67	4	;
	118	135	95.99180565	3	68	4	;
	118	140	50.75697193	5	69	4	;
	119	134	49.247906050000005	4	70	4	;
	119	142	50.0	4	71	4	;
	119	144	50.78508436	2	72	4	;
	120	141	48.85357564	3	73	4	;
	120	133	50.91256152	4	74	4	;
	120	143	50.78508436	2	75	4	;
	121	146	259.00200639999997	6	0	5	;
	121	147	234.0347319	4	1	5	;
	122	145	259.00200639999997	6	2	5	;
	122	150	49.58180928	5	3	5	;
	123	145	234.0347319	4	4	5	;
	123	148	171.1052372	4	5	5	;
	123	156	234.0347319	4	6	5	;
	124	149	177.82794099999998	2	7	5	;
	124	155	49.0882673	6	8	5	;
	124	147	171.1052372	4	9	5	;
	125	148	177.82794099999998	2	10	5	;
	125	150	49.47995469000001	4	11	5	;
	125	153	100.0	5	12	5	;
	126	146	49.58180928	5	13	5	;
	126	149	49.47995469000001	4	14	5	;
	126	152	48.98587646	2	15	5	;
	127	152	78.4181131	3	16	5	;
	127	162	234.0347319	2	17	5	;
	128	160	50.45822583	5	18	5	;
	128	153	50.50193156	10	19	5	;
	128	150	48.98587646	2	20	5	;
	128	151	78.4181131	3	21	5	;
	129	149	100.0	5	22	5	;
	129	152	50.50193156	10	23	5	;
	129	154	139.1578842	3	24	5	;
	130	161	49.93510694	8	25	5	;
	130	153	139.1578842	3	26	5	;
	130	155	100.0	5	27	5	;
	130	159	135.12001550000002	6	28	5	;
	130	160	48.54917717000001	4	29	5	;
	131	148	49.0882673	6	30	5	;
	131	154	100.0	5	31	5	;
	131	156	49.0882673	6	32	5	;
	131	158	48.76508287	4	33	5	;
	132	155	49.0882673	6	34	5	;
	132	157	259.00200639999997	3	35	5	;
	132	147	234.0347319	4	36	5	;
	133	168	50.91256152	4	37	5	;
	133	156	259.00200639999997	3	38	5	;
	134	155	48.76508287	4	39	5	;
	134	159	51.27526119	5	40	5	;
	134	167	49.247906050000005	4	41	5	;
	135	154	135.12001550000002	6	42	5	;
	135	158	51.27526119	5	43	5	;
	135	163	145.6475315	3	44	5	;
	135	166	95.99180565	3	45	5	;
	136	162	196.79896710000003	3	46	5	;
	136	161	52.299100630000005	2	47	5	;
	136	154	48.54917717000001	4	48	5	;
	136	152	50.45822583	5	49	5	;
	137	154	49.93510694	8	50	5	;
	137	160	52.299100630000005	2	51	5	;
	137	163	48.239508310000005	2	52	5	;
	138	151	234.0347319	2	53	5	;
	138	160	196.79896710000003	3	54	5	;
	138	164	234.0347319	4	55	5	;
	139	164	50.026075629999994	4	56	5	;
	139	161	48.239508310000005	2	57	5	;
	139	159	145.6475315	3	58	5	;
	140	162	234.0347319	4	59	5	;
	140	163	50.026075629999994	4	60	5	;
	140	165	50.599123399999996	6	61	5	;
	140	166	50.75697193	5	62	5	;
	141	164	50.599123399999996	6	63	5	;
	141	166	52.299100630000005	2	64	5	;
	141	168	48.85357564	3	65	5	;
	142	167	50.0	4	66	5	;
	142	165	52.299100630000005	2	67	5	;
	142	159	95.99180565	3	68	5	;
	142	164	50.75697193	5	69	5	;
	143	158	49.247906050000005	4	70	5	;
	143	166	50.0	4	71	5	;
	143	168	50.78508436	2	72	5	;
	144	165	48.85357564	3	73	5	;
	144	157	50.91256152	4	74	5	;
	144	167	50.78508436	2	75	5	;
	145	170	259.00200639999997	6	0	6	;
	145	171	234.0347319	4	1	6	;
	146	169	259.00200639999997	6	2	6	;
	146	174	49.58180928	5	3	6	;
	147	169	234.0347319	4	4	6	;
	147	172	171.1052372	4	5	6	;
	147	180	234.0347319	4	6	6	;
	148	173	177.82794099999998	2	7	6	;
	148	179	49.0882673	6	8	6	;
	148	171	171.1052372	4	9	6	;
	149	172	177.82794099999998	2	10	6	;
	149	174	49.47995469000001	4	11	6	;
	149	177	100.0	5	12	6	;
	150	170	49.58180928	5	13	6	;
	150	173	49.47995469000001	4	14	6	;
	150	176	48.98587646	2	15	6	;
	151	176	78.4181131	3	16	6	;
	151	186	234.0347319	2	17	6	;
	152	184	50.45822583	5	18	6	;
	152	177	50.50193156	10	19	6	;
	152	174	48.98587646	2	20	6	;
	152	175	78.4181131	3	21	6	;
	153	173	100.0	5	22	6	;
	153	176	50.50193156	10	23	6	;
	153	178	139.1578842	3	24	6	;
	154	185	49.93510694	8	25	6	;
	154	177	139.1578842	3	26	6	;
	154	179	100.0	5	27	6	;
	154	183	135.12001550000002	6	28	6	;
	154	184	48.54917717000001	4	29	6	;
	155	172	49.0882673	6	30	6	;
	155	178	100.0	5	31	6	;
	155	180	49.0882673	6	32	6	;
	155	182	48.76508287	4	33	6	;
	156	179	49.0882673	6	34	6	;
	156	181	259.00200639999997	3	35	6	;
	156	171	234.0347319	4	36	6	;
	157	192	50.91256152	4	37	6	;
	157	180	259.00200639999997	3	38	6	;
	158	179	48.76508287	4	39	6	;
	158	183	51.27526119	5	40	6	;
	158	191	49.247906050000005	4	41	6	;
	159	178	135.12001550000002	6	42	6	;
	159	182	51.27526119	5	43	6	;
	159	187	145.6475315	3	44	6	;
	159	190	95.99180565	3	45	6	;
	160	186	196.79896710000003	3	46	6	;
	160	185	52.299100630000005	2	47	6	;
	160	178	48.54917717000001	4	48	6	;
	160	176	50.45822583	5	49	6	;
	161	178	49.93510694	8	50	6	;
	161	184	52.299100630000005	2	51	6	;
	161	187	48.239508310000005	2	52	6	;
	162	175	234.0347319	2	53	6	;
	162	184	196.79896710000003	3	54	6	;
	162	188	234.0347319	4	55	6	;
	163	188	50.026075629999994	4	56	6	;
	163	185	48.239508310000005	2	57	6	;
	163	183	145.6475315	3	58	6	;
	164	186	234.0347319	4	59	6	;
	164	187	50.026075629999994	4	60	6	;
	164	189	50.599123399999996	6	61	6	;
	164	190	50.75697193	5	62	6	;
	165	188	50.599123399999996	6	63	6	;
	165	190	52.299100630000005	2	64	6	;
	165	192	48.85357564	3	65	6	;
	166	191	50.0	4	66	6	;
	166	189	52.299100630000005	2	67	6	;
	166	183	95.99180565	3	68	6	;
	166	188	50.75697193	5	69	6	;
	167	182	49.247906050000005	4	70	6	;
	167	190	50.0	4	71	6	;
	167	192	50.78508436	2	72	6	;
	168	189	48.85357564	3	73	6	;
	168	181	50.91256152	4	74	6	;
	168	191	50.78508436	2	75	6	;
	169	194	259.00200639999997	6	0	7	;
	169	195	234.0347319	4	1	7	;
	170	193	259.00200639999997	6	2	7	;
	170	198	49.58180928	5	3	7	;
	171	193	234.0347319	4	4	7	;
	171	196	171.1052372	4	5	7	;
	171	204	234.0347319	4	6	7	;
	172	197	177.82794099999998	2	7	7	;
	172	203	49.0882673	6	8	7	;
	172	195	171.1052372	4	9	7	;
	173	196	177.82794099999998	2	10	7	;
	173	198	49.47995469000001	4	11	7	;
	173	201	100.0	5	12	7	;
	174	194	49.58180928	5	13	7	;
	174	197	49.47995469000001	4	14	7	;
	174	200	48.98587646	2	15	7	;
	175	200	78.4181131	3	16	7	;
	175	210	234.0347319	2	17	7	;
	176	208	50.45822583	5	18	7	;
	176	201	50.50193156	10	19	7	;
	176	198	48.98587646	2	20	7	;
	176	199	78.4181131	3	21	7	;
	177	197	100.0	5	22	7	;
	177	200	50.50193156	10	23	7	;
	177	202	139.1578842	3	24	7	;
	178	209	49.93510694	8	25	7	;
	178	201	139.1578842	3	26	7	;
	178	203	100.0	5	27	7	;
	178	207	135.12001550000002	6	28	7	;
	178	208	48.54917717000001	4	29	7	;
	179	196	49.0882673	6	30	7	;
	179	202	100.0	5	31	7	;
	179	204	49.0882673	6	32	7	;
	179	206	48.76508287	4	33	7	;
	180	203	49.0882673	6	34	7	;
	180	205	259.00200639999997	3	35	7	;
	180	195	234.0347319	4	36	7	;
	181	216	50.91256152	4	37	7	;
	181	204	259.00200639999997	3	38	7	;
	182	203	48.76508287	4	39	7	;
	182	207	51.27526119	5	40	7	;
	182	215	49.247906050000005	4	41	7	;
	183	202	135.12001550000002	6	42	7	;
	183	206	51.27526119	5	43	7	;
	183	211	145.6475315	3	44	7	;
	183	214	95.99180565	3	45	7	;
	184	210	196.79896710000003	3	46	7	;
	184	209	52.299100630000005	2	47	7	;
	184	202	48.54917717000001	4	48	7	;
	184	200	50.45822583	5	49	7	;
	185	202	49.93510694	8	50	7	;
	185	208	52.299100630000005	2	51	7	;
	185	211	48.239508310000005	2	52	7	;
	186	199	234.0347319	2	53	7	;
	186	208	196.79896710000003	3	54	7	;
	186	212	234.0347319	4	55	7	;
	187	212	50.026075629999994	4	56	7	;
	187	209	48.239508310000005	2	57	7	;
	187	207	145.6475315	3	58	7	;
	188	210	234.0347319	4	59	7	;
	188	211	50.026075629999994	4	60	7	;
	188	213	50.599123399999996	6	61	7	;
	188	214	50.75697193	5	62	7	;
	189	212	50.599123399999996	6	63	7	;
	189	214	52.299100630000005	2	64	7	;
	189	216	48.85357564	3	65	7	;
	190	215	50.0	4	66	7	;
	190	213	52.299100630000005	2	67	7	;
	190	207	95.99180565	3	68	7	;
	190	212	50.75697193	5	69	7	;
	191	206	49.247906050000005	4	70	7	;
	191	214	50.0	4	71	7	;
	191	216	50.78508436	2	72	7	;
	192	213	48.85357564	3	73	7	;
	192	205	50.91256152	4	74	7	;
	192	215	50.78508436	2	75	7	;
	193	218	259.00200639999997	6	0	8	;
	193	219	234.0347319	4	1	8	;
	194	217	259.00200639999997	6	2	8	;
	194	222	49.58180928	5	3	8	;
	195	217	234.0347319	4	4	8	;
	195	220	171.1052372	4	5	8	;
	195	228	234.0347319	4	6	8	;
	196	221	177.82794099999998	2	7	8	;
	196	227	49.0882673	6	8	8	;
	196	219	171.1052372	4	9	8	;
	197	220	177.82794099999998	2	10	8	;
	197	222	49.47995469000001	4	11	8	;
	197	225	100.0	5	12	8	;
	198	218	49.58180928	5	13	8	;
	198	221	49.47995469000001	4	14	8	;
	198	224	48.98587646	2	15	8	;
	199	224	78.4181131	3	16	8	;
	199	234	234.0347319	2	17	8	;
	200	232	50.45822583	5	18	8	;
	200	225	50.50193156	10	19	8	;
	200	222	48.98587646	2	20	8	;
	200	223	78.4181131	3	21	8	;
	201	221	100.0	5	22	8	;
	201	224	50.50193156	10	23	8	;
	201	226	139.1578842	3	24	8	;
	202	233	49.93510694	8	25	8	;
	202	225	139.1578842	3	26	8	;
	202	227	100.0	5	27	8	;
	202	231	135.12001550000002	6	28	8	;
	202	232	48.54917717000001	4	29	8	;
	203	220	49.0882673	6	30	8	;
	203	226	100.0	5	31	8	;
	203	228	49.0882673	6	32	8	;
	203	230	48.76508287	4	33	8	;
	204	227	49.0882673	6	34	8	;
	204	229	259.00200639999997	3	35	8	;
	204	219	234.0347319	4	36	8	;
	205	240	50.91256152	4	37	8	;
	205	228	259.00200639999997	3	38	8	;
	206	227	48.76508287	4	39	8	;
	206	231	51.27526119	5	40	8	;
	206	239	49.247906050000005	4	41	8	;
	207	226	135.12001550000002	6	42	8	;
	207	230	51.27526119	5	43	8	;
	207	235	145.6475315	3	44	8	;
	207	238	95.99180565	3	45	8	;
	208	234	196.79896710000003	3	46	8	;
	208	233	52.299100630000005	2	47	8	;
	208	226	48.54917717000001	4	48	8	;
	208	224	50.45822583	5	49	8	;
	209	226	49.93510694	8	50	8	;
	209	232	52.299100630000005	2	51	8	;
	209	235	48.239508310000005	2	52	8	;
	210	223	234.0347319	2	53	8	;
	210	232	196.79896710000003	3	54	8	;
	210	236	234.0347319	4	55	8	;
	211	236	50.026075629999994	4	56	8	;
	211	233	48.239508310000005	2	57	8	;
	211	231	145.6475315	3	58	8	;
	212	234	234.0347319	4	59	8	;
	212	235	50.026075629999994	4	60	8	;
	212	237	50.599123399999996	6	61	8	;
	212	238	50.75697193	5	62	8	;
	213	236	50.599123399999996	6	63	8	;
	213	238	52.299100630000005	2	64	8	;
	213	240	48.85357564	3	65	8	;
	214	239	50.0	4	66	8	;
	214	237	52.299100630000005	2	67	8	;
	214	231	95.99180565	3	68	8	;
	214	236	50.75697193	5	69	8	;
	215	230	49.247906050000005	4	70	8	;
	215	238	50.0	4	71	8	;
	215	240	50.78508436	2	72	8	;
	216	237	48.85357564	3	73	8	;
	216	229	50.91256152	4	74	8	;
	216	239	50.78508436	2	75	8	;
	217	242	259.00200639999997	6	0	9	;
	217	243	234.0347319	4	1	9	;
	218	241	259.00200639999997	6	2	9	;
	218	246	49.58180928	5	3	9	;
	219	241	234.0347319	4	4	9	;
	219	244	171.1052372	4	5	9	;
	219	252	234.0347319	4	6	9	;
	220	245	177.82794099999998	2	7	9	;
	220	251	49.0882673	6	8	9	;
	220	243	171.1052372	4	9	9	;
	221	244	177.82794099999998	2	10	9	;
	221	246	49.47995469000001	4	11	9	;
	221	249	100.0	5	12	9	;
	222	242	49.58180928	5	13	9	;
	222	245	49.47995469000001	4	14	9	;
	222	248	48.98587646	2	15	9	;
	223	248	78.4181131	3	16	9	;
	223	258	234.0347319	2	17	9	;
	224	256	50.45822583	5	18	9	;
	224	249	50.50193156	10	19	9	;
	224	246	48.98587646	2	20	9	;
	224	247	78.4181131	3	21	9	;
	225	245	100.0	5	22	9	;
	225	248	50.50193156	10	23	9	;
	225	250	139.1578842	3	24	9	;
	226	257	49.93510694	8	25	9	;
	226	249	139.1578842	3	26	9	;
	226	251	100.0	5	27	9	;
	226	255	135.12001550000002	6	28	9	;
	226	256	48.54917717000001	4	29	9	;
	227	244	49.0882673	6	30	9	;
	227	250	100.0	5	31	9	;
	227	252	49.0882673	6	32	9	;
	227	254	48.76508287	4	33	9	;
	228	251	49.0882673	6	34	9	;
	228	253	259.00200639999997	3	35	9	;
	228	243	234.0347319	4	36	9	;
	229	264	50.91256152	4	37	9	;
	229	252	259.00200639999997	3	38	9	;
	230	251	48.76508287	4	39	9	;
	230	255	51.27526119	5	40	9	;
	230	263	49.247906050000005	4	41	9	;
	231	250	135.12001550000002	6	42	9	;
	231	254	51.27526119	5	43	9	;
	231	259	145.6475315	3	44	9	;
	231	262	95.99180565	3	45	9	;
	232	258	196.79896710000003	3	46	9	;
	232	257	52.299100630000005	2	47	9	;
	232	250	48.54917717000001	4	48	9	;
	232	248	50.45822583	5	49	9	;
	233	250	49.93510694	8	50	9	;
	233	256	52.299100630000005	2	51	9	;
	233	259	48.239508310000005	2	52	9	;
	234	247	234.0347319	2	53	9	;
	234	256	196.79896710000003	3	54	9	;
	234	260	234.0347319	4	55	9	;
	235	260	50.026075629999994	4	56	9	;
	235	257	48.239508310000005	2	57	9	;
	235	255	145.6475315	3	58	9	;
	236	258	234.0347319	4	59	9	;
	236	259	50.026075629999994	4	60	9	;
	236	261	50.599123399999996	6	61	9	;
	236	262	50.75697193	5	62	9	;
	237	260	50.599123399999996	6	63	9	;
	237	262	52.299100630000005	2	64	9	;
	237	264	48.85357564	3	65	9	;
	238	263	50.0	4	66	9	;
	238	261	52.299100630000005	2	67	9	;
	238	255	95.99180565	3	68	9	;
	238	260	50.75697193	5	69	9	;
	239	254	49.247906050000005	4	70	9	;
	239	262	50.0	4	71	9	;
	239	264	50.78508436	2	72	9	;
	240	261	48.85357564	3	73	9	;
	240	253	50.91256152	4	74	9	;
	240	263	50.78508436	2	75	9	;
	241	266	259.00200639999997	6	0	10	;
	241	267	234.0347319	4	1	10	;
	242	265	259.00200639999997	6	2	10	;
	242	270	49.58180928	5	3	10	;
	243	265	234.0347319	4	4	10	;
	243	268	171.1052372	4	5	10	;
	243	276	234.0347319	4	6	10	;
	244	269	177.82794099999998	2	7	10	;
	244	275	49.0882673	6	8	10	;
	244	267	171.1052372	4	9	10	;
	245	268	177.82794099999998	2	10	10	;
	245	270	49.47995469000001	4	11	10	;
	245	273	100.0	5	12	10	;
	246	266	49.58180928	5	13	10	;
	246	269	49.47995469000001	4	14	10	;
	246	272	48.98587646	2	15	10	;
	247	272	78.4181131	3	16	10	;
	247	282	234.0347319	2	17	10	;
	248	280	50.45822583	5	18	10	;
	248	273	50.50193156	10	19	10	;
	248	270	48.98587646	2	20	10	;
	248	271	78.4181131	3	21	10	;
	249	269	100.0	5	22	10	;
	249	272	50.50193156	10	23	10	;
	249	274	139.1578842	3	24	10	;
	250	281	49.93510694	8	25	10	;
	250	273	139.1578842	3	26	10	;
	250	275	100.0	5	27	10	;
	250	279	135.12001550000002	6	28	10	;
	250	280	48.54917717000001	4	29	10	;
	251	268	49.0882673	6	30	10	;
	251	274	100.0	5	31	10	;
	251	276	49.0882673	6	32	10	;
	251	278	48.76508287	4	33	10	;
	252	275	49.0882673	6	34	10	;
	252	277	259.00200639999997	3	35	10	;
	252	267	234.0347319	4	36	10	;
	253	288	50.91256152	4	37	10	;
	253	276	259.00200639999997	3	38	10	;
	254	275	48.76508287	4	39	10	;
	254	279	51.27526119	5	40	10	;
	254	287	49.247906050000005	4	41	10	;
	255	274	135.12001550000002	6	42	10	;
	255	278	51.27526119	5	43	10	;
	255	283	145.6475315	3	44	10	;
	255	286	95.99180565	3	45	10	;
	256	282	196.79896710000003	3	46	10	;
	256	281	52.299100630000005	2	47	10	;
	256	274	48.54917717000001	4	48	10	;
	256	272	50.45822583	5	49	10	;
	257	274	49.93510694	8	50	10	;
	257	280	52.299100630000005	2	51	10	;
	257	283	48.239508310000005	2	52	10	;
	258	271	234.0347319	2	53	10	;
	258	280	196.79896710000003	3	54	10	;
	258	284	234.0347319	4	55	10	;
	259	284	50.026075629999994	4	56	10	;
	259	281	48.239508310000005	2	57	10	;
	259	279	145.6475315	3	58	10	;
	260	282	234.0347319	4	59	10	;
	260	283	50.026075629999994	4	60	10	;
	260	285	50.599123399999996	6	61	10	;
	260	286	50.75697193	5	62	10	;
	261	284	50.599123399999996	6	63	10	;
	261	286	52.299100630000005	2	64	10	;
	261	288	48.85357564	3	65	10	;
	262	287	50.0	4	66	10	;
	262	285	52.299100630000005	2	67	10	;
	262	279	95.99180565	3	68	10	;
	262	284	50.75697193	5	69	10	;
	263	278	49.247906050000005	4	70	10	;
	263	286	50.0	4	71	10	;
	263	288	50.78508436	2	72	10	;
	264	285	48.85357564	3	73	10	;
	264	277	50.91256152	4	74	10	;
	264	287	50.78508436	2	75	10	;
	265	290	259.00200639999997	6	0	11	;
	265	291	234.0347319	4	1	11	;
	266	289	259.00200639999997	6	2	11	;
	266	294	49.58180928	5	3	11	;
	267	289	234.0347319	4	4	11	;
	267	292	171.1052372	4	5	11	;
	267	300	234.0347319	4	6	11	;
	268	293	177.82794099999998	2	7	11	;
	268	299	49.0882673	6	8	11	;
	268	291	171.1052372	4	9	11	;
	269	292	177.82794099999998	2	10	11	;
	269	294	49.47995469000001	4	11	11	;
	269	297	100.0	5	12	11	;
	270	290	49.58180928	5	13	11	;
	270	293	49.47995469000001	4	14	11	;
	270	296	48.98587646	2	15	11	;
	271	296	78.4181131	3	16	11	;
	271	306	234.0347319	2	17	11	;
	272	304	50.45822583	5	18	11	;
	272	297	50.50193156	10	19	11	;
	272	294	48.98587646	2	20	11	;
	272	295	78.4181131	3	21	11	;
	273	293	100.0	5	22	11	;
	273	296	50.50193156	10	23	11	;
	273	298	139.1578842	3	24	11	;
	274	305	49.93510694	8	25	11	;
	274	297	139.1578842	3	26	11	;
	274	299	100.0	5	27	11	;
	274	303	135.12001550000002	6	28	11	;
	274	304	48.54917717000001	4	29	11	;
	275	292	49.0882673	6	30	11	;
	275	298	100.0	5	31	11	;
	275	300	49.0882673	6	32	11	;
	275	302	48.76508287	4	33	11	;
	276	299	49.0882673	6	34	11	;
	276	301	259.00200639999997	3	35	11	;
	276	291	234.0347319	4	36	11	;
	277	312	50.91256152	4	37	11	;
	277	300	259.00200639999997	3	38	11	;
	278	299	48.76508287	4	39	11	;
	278	303	51.27526119	5	40	11	;
	278	311	49.247906050000005	4	41	11	;
	279	298	135.12001550000002	6	42	11	;
	279	302	51.27526119	5	43	11	;
	279	307	145.6475315	3	44	11	;
	279	310	95.99180565	3	45	11	;
	280	306	196.79896710000003	3	46	11	;
	280	305	52.299100630000005	2	47	11	;
	280	298	48.54917717000001	4	48	11	;
	280	296	50.45822583	5	49	11	;
	281	298	49.93510694	8	50	11	;
	281	304	52.299100630000005	2	51	11	;
	281	307	48.239508310000005	2	52	11	;
	282	295	234.0347319	2	53	11	;
	282	304	196.79896710000003	3	54	11	;
	282	308	234.0347319	4	55	11	;
	283	308	50.026075629999994	4	56	11	;
	283	305	48.239508310000005	2	57	11	;
	283	303	145.6475315	3	58	11	;
	284	306	234.0347319	4	59	11	;
	284	307	50.026075629999994	4	60	11	;
	284	309	50.599123399999996	6	61	11	;
	284	310	50.75697193	5	62	11	;
	285	308	50.599123399999996	6	63	11	;
	285	310	52.299100630000005	2	64	11	;
	285	312	48.85357564	3	65	11	;
	286	311	50.0	4	66	11	;
	286	309	52.299100630000005	2	67	11	;
	286	303	95.99180565	3	68	11	;
	286	308	50.75697193	5	69	11	;
	287	302	49.247906050000005	4	70	11	;
	287	310	50.0	4	71	11	;
	287	312	50.78508436	2	72	11	;
	288	309	48.85357564	3	73	11	;
	288	301	50.91256152	4	74	11	;
	288	311	50.78508436	2	75	11	;
	289	314	259.00200639999997	6	0	12	;
	289	315	234.0347319	4	1	12	;
	290	313	259.00200639999997	6	2	12	;
	290	318	49.58180928	5	3	12	;
	291	313	234.0347319	4	4	12	;
	291	316	171.1052372	4	5	12	;
	291	324	234.0347319	4	6	12	;
	292	317	177.82794099999998	2	7	12	;
	292	323	49.0882673	6	8	12	;
	292	315	171.1052372	4	9	12	;
	293	316	177.82794099999998	2	10	12	;
	293	318	49.47995469000001	4	11	12	;
	293	321	100.0	5	12	12	;
	294	314	49.58180928	5	13	12	;
	294	317	49.47995469000001	4	14	12	;
	294	320	48.98587646	2	15	12	;
	295	320	78.4181131	3	16	12	;
	295	330	234.0347319	2	17	12	;
	296	328	50.45822583	5	18	12	;
	296	321	50.50193156	10	19	12	;
	296	318	48.98587646	2	20	12	;
	296	319	78.4181131	3	21	12	;
	297	317	100.0	5	22	12	;
	297	320	50.50193156	10	23	12	;
	297	322	139.1578842	3	24	12	;
	298	329	49.93510694	8	25	12	;
	298	321	139.1578842	3	26	12	;
	298	323	100.0	5	27	12	;
	298	327	135.12001550000002	6	28	12	;
	298	328	48.54917717000001	4	29	12	;
	299	316	49.0882673	6	30	12	;
	299	322	100.0	5	31	12	;
	299	324	49.0882673	6	32	12	;
	299	326	48.76508287	4	33	12	;
	300	323	49.0882673	6	34	12	;
	300	325	259.00200639999997	3	35	12	;
	300	315	234.0347319	4	36	12	;
	301	336	50.91256152	4	37	12	;
	301	324	259.00200639999997	3	38	12	;
	302	323	48.76508287	4	39	12	;
	302	327	51.27526119	5	40	12	;
	302	335	49.247906050000005	4	41	12	;