<NUMBER OF ZONES> 4
<TOTAL OD FLOW> 1000.00
<END OF METADATA>


Origin 1
    4: 1000.00;