<NUMBER OF ZONES> 4
<TOTAL OD FLOW> 10.00
<END OF METADATA>


Origin 1
    4: 10.00;