<NUMBER OF ZONES> 48
<NUMBER OF NODES> 1968
<FIRST THRU NODE> 1
<NUMBER OF LINKS> 12168
<ORIGINAL HEADER> 
<END OF METADATA>


~	init_node	term_node	free_flow_time	original_link	time	original_TS_link	user_state	link_type	price_index	;
	49	74	10.0	0	0	0	0	1	0	;
	49	75	8.0	1	0	1	0	1	0	;
	50	73	10.0	2	0	2	0	1	0	;
	50	78	9.0	3	0	3	0	1	0	;
	51	73	8.0	4	0	4	0	1	0	;
	51	76	8.0	5	0	5	0	1	0	;
	51	84	8.0	6	0	6	0	1	0	;
	52	77	6.0	7	0	7	0	1	0	;
	52	83	10.0	8	0	8	0	1	0	;
	52	75	8.0	9	0	9	0	1	0	;
	53	76	6.0	10	0	10	0	1	0	;
	53	78	8.0	11	0	11	0	1	0	;
	53	81	9.0	12	0	12	0	1	0	;
	54	74	9.0	13	0	13	0	1	0	;
	54	77	8.0	14	0	14	0	1	0	;
	54	80	6.0	15	0	15	0	1	0	;
	55	80	7.0	16	0	16	0	1	0	;
	55	90	6.0	17	0	17	0	1	0	;
	56	88	9.0	18	0	18	0	1	0	;
	56	81	14.0	19	0	19	0	1	0	;
	56	78	6.0	20	0	20	0	1	0	;
	56	79	7.0	21	0	21	0	1	0	;
	57	77	9.0	22	0	22	0	1	0	;
	57	80	14.0	23	0	23	0	1	0	;
	57	82	7.0	24	0	24	0	1	0	;
	58	89	12.0	25	0	25	0	1	0	;
	58	81	7.0	26	0	26	0	1	0	;
	58	83	9.0	27	0	27	0	1	0	;
	58	87	10.0	28	0	28	0	1	0	;
	58	88	8.0	29	0	29	0	1	0	;
	59	76	10.0	30	0	30	0	1	0	;
	59	82	9.0	31	0	31	0	1	0	;
	59	84	10.0	32	0	32	0	1	0	;
	59	86	8.0	33	0	33	0	1	0	;
	60	83	10.0	34	0	34	0	1	0	;
	60	85	7.0	35	0	35	0	1	0	;
	60	75	8.0	36	0	36	0	1	0	;
	61	96	8.0	37	0	37	0	1	0	;
	61	84	7.0	38	0	38	0	1	0	;
	62	83	8.0	39	0	39	0	1	0	;
	62	87	9.0	40	0	40	0	1	0	;
	62	95	8.0	41	0	41	0	1	0	;
	63	82	10.0	42	0	42	0	1	0	;
	63	86	9.0	43	0	43	0	1	0	;
	63	91	7.0	44	0	44	0	1	0	;
	63	94	7.0	45	0	45	0	1	0	;
	64	90	7.0	46	0	46	0	1	0	;
	64	89	6.0	47	0	47	0	1	0	;
	64	82	8.0	48	0	48	0	1	0	;
	64	80	9.0	49	0	49	0	1	0	;
	65	82	12.0	50	0	50	0	1	0	;
	65	88	6.0	51	0	51	0	1	0	;
	65	91	6.0	52	0	52	0	1	0	;
	66	79	6.0	53	0	53	0	1	0	;
	66	88	7.0	54	0	54	0	1	0	;
	66	92	8.0	55	0	55	0	1	0	;
	67	92	8.0	56	0	56	0	1	0	;
	67	89	6.0	57	0	57	0	1	0	;
	67	87	7.0	58	0	58	0	1	0	;
	68	90	8.0	59	0	59	0	1	0	;
	68	91	8.0	60	0	60	0	1	0	;
	68	93	10.0	61	0	61	0	1	0	;
	68	94	9.0	62	0	62	0	1	0	;
	69	92	10.0	63	0	63	0	1	0	;
	69	94	6.0	64	0	64	0	1	0	;
	69	96	7.0	65	0	65	0	1	0	;
	70	95	8.0	66	0	66	0	1	0	;
	70	93	6.0	67	0	67	0	1	0	;
	70	87	7.0	68	0	68	0	1	0	;
	70	92	9.0	69	0	69	0	1	0	;
	71	86	8.0	70	0	70	0	1	0	;
	71	94	8.0	71	0	71	0	1	0	;
	71	96	6.0	72	0	72	0	1	0	;
	72	93	7.0	73	0	73	0	1	0	;
	72	85	8.0	74	0	74	0	1	0	;
	72	95	6.0	75	0	75	0	1	0	;
	49	73	4.0	-1	0	76	0	1	0	;
	50	74	4.0	-1	0	77	0	1	0	;
	51	75	4.0	-1	0	78	0	1	0	;
	52	76	4.0	-1	0	79	0	1	0	;
	53	77	4.0	-1	0	80	0	1	0	;
	54	78	4.0	-1	0	81	0	1	0	;
	55	79	4.0	-1	0	82	0	1	0	;
	56	80	4.0	-1	0	83	0	1	0	;
	57	81	4.0	-1	0	84	0	1	0	;
	58	82	4.0	-1	0	85	0	1	0	;
	59	83	4.0	-1	0	86	0	1	0	;
	60	84	4.0	-1	0	87	0	1	0	;
	61	85	4.0	-1	0	88	0	1	0	;
	62	86	4.0	-1	0	89	0	1	0	;
	63	87	4.0	-1	0	90	0	1	0	;
	64	88	4.0	-1	0	91	0	1	0	;
	65	89	4.0	-1	0	92	0	1	0	;
	66	90	4.0	-1	0	93	0	1	0	;
	67	91	4.0	-1	0	94	0	1	0	;
	68	92	4.0	-1	0	95	0	1	0	;
	69	93	4.0	-1	0	96	0	1	0	;
	70	94	4.0	-1	0	97	0	1	0	;
	71	95	4.0	-1	0	98	0	1	0	;
	72	96	4.0	-1	0	99	0	1	0	;
	73	98	10.0	0	1	100	0	1	0	;
	73	99	8.0	1	1	101	0	1	0	;
	74	97	10.0	2	1	102	0	1	0	;
	74	102	9.0	3	1	103	0	1	0	;
	75	97	8.0	4	1	104	0	1	0	;
	75	100	8.0	5	1	105	0	1	0	;
	75	108	8.0	6	1	106	0	1	0	;
	76	101	6.0	7	1	107	0	1	0	;
	76	107	10.0	8	1	108	0	1	0	;
	76	99	8.0	9	1	109	0	1	0	;
	77	100	6.0	10	1	110	0	1	0	;
	77	102	8.0	11	1	111	0	1	0	;
	77	105	9.0	12	1	112	0	1	0	;
	78	98	9.0	13	1	113	0	1	0	;
	78	101	8.0	14	1	114	0	1	0	;
	78	104	6.0	15	1	115	0	1	0	;
	79	104	7.0	16	1	116	0	1	0	;
	79	114	6.0	17	1	117	0	1	0	;
	80	112	9.0	18	1	118	0	1	0	;
	80	105	14.0	19	1	119	0	1	0	;
	80	102	6.0	20	1	120	0	1	0	;
	80	103	7.0	21	1	121	0	1	0	;
	81	101	9.0	22	1	122	0	1	0	;
	81	104	14.0	23	1	123	0	1	0	;
	81	106	7.0	24	1	124	0	1	0	;
	82	113	12.0	25	1	125	0	1	0	;
	82	105	7.0	26	1	126	0	1	0	;
	82	107	9.0	27	1	127	0	1	0	;
	82	111	10.0	28	1	128	0	1	0	;
	82	112	8.0	29	1	129	0	1	0	;
	83	100	10.0	30	1	130	0	1	0	;
	83	106	9.0	31	1	131	0	1	0	;
	83	108	10.0	32	1	132	0	1	0	;
	83	110	8.0	33	1	133	0	1	0	;
	84	107	10.0	34	1	134	0	1	0	;
	84	109	7.0	35	1	135	0	1	0	;
	84	99	8.0	36	1	136	0	1	0	;
	85	120	8.0	37	1	137	0	1	0	;
	85	108	7.0	38	1	138	0	1	0	;
	86	107	8.0	39	1	139	0	1	0	;
	86	111	9.0	40	1	140	0	1	0	;
	86	119	8.0	41	1	141	0	1	0	;
	87	106	10.0	42	1	142	0	1	0	;
	87	110	9.0	43	1	143	0	1	0	;
	87	115	7.0	44	1	144	0	1	0	;
	87	118	7.0	45	1	145	0	1	0	;
	88	114	7.0	46	1	146	0	1	0	;
	88	113	6.0	47	1	147	0	1	0	;
	88	106	8.0	48	1	148	0	1	0	;
	88	104	9.0	49	1	149	0	1	0	;
	89	106	12.0	50	1	150	0	1	0	;
	89	112	6.0	51	1	151	0	1	0	;
	89	115	6.0	52	1	152	0	1	0	;
	90	103	6.0	53	1	153	0	1	0	;
	90	112	7.0	54	1	154	0	1	0	;
	90	116	8.0	55	1	155	0	1	0	;
	91	116	8.0	56	1	156	0	1	0	;
	91	113	6.0	57	1	157	0	1	0	;
	91	111	7.0	58	1	158	0	1	0	;
	92	114	8.0	59	1	159	0	1	0	;
	92	115	8.0	60	1	160	0	1	0	;
	92	117	10.0	61	1	161	0	1	0	;
	92	118	9.0	62	1	162	0	1	0	;
	93	116	10.0	63	1	163	0	1	0	;
	93	118	6.0	64	1	164	0	1	0	;
	93	120	7.0	65	1	165	0	1	0	;
	94	119	8.0	66	1	166	0	1	0	;
	94	117	6.0	67	1	167	0	1	0	;
	94	111	7.0	68	1	168	0	1	0	;
	94	116	9.0	69	1	169	0	1	0	;
	95	110	8.0	70	1	170	0	1	0	;
	95	118	8.0	71	1	171	0	1	0	;
	95	120	6.0	72	1	172	0	1	0	;
	96	117	7.0	73	1	173	0	1	0	;
	96	109	8.0	74	1	174	0	1	0	;
	96	119	6.0	75	1	175	0	1	0	;
	73	97	4.0	-1	1	176	0	1	0	;
	74	98	4.0	-1	1	177	0	1	0	;
	75	99	4.0	-1	1	178	0	1	0	;
	76	100	4.0	-1	1	179	0	1	0	;
	77	101	4.0	-1	1	180	0	1	0	;
	78	102	4.0	-1	1	181	0	1	0	;
	79	103	4.0	-1	1	182	0	1	0	;
	80	104	4.0	-1	1	183	0	1	0	;
	81	105	4.0	-1	1	184	0	1	0	;
	82	106	4.0	-1	1	185	0	1	0	;
	83	107	4.0	-1	1	186	0	1	0	;
	84	108	4.0	-1	1	187	0	1	0	;
	85	109	4.0	-1	1	188	0	1	0	;
	86	110	4.0	-1	1	189	0	1	0	;
	87	111	4.0	-1	1	190	0	1	0	;
	88	112	4.0	-1	1	191	0	1	0	;
	89	113	4.0	-1	1	192	0	1	0	;
	90	114	4.0	-1	1	193	0	1	0	;
	91	115	4.0	-1	1	194	0	1	0	;
	92	116	4.0	-1	1	195	0	1	0	;
	93	117	4.0	-1	1	196	0	1	0	;
	94	118	4.0	-1	1	197	0	1	0	;
	95	119	4.0	-1	1	198	0	1	0	;
	96	120	4.0	-1	1	199	0	1	0	;
	97	122	10.0	0	2	200	0	1	0	;
	97	123	8.0	1	2	201	0	1	0	;
	98	121	10.0	2	2	202	0	1	0	;
	98	126	9.0	3	2	203	0	1	0	;
	99	121	8.0	4	2	204	0	1	0	;
	99	124	8.0	5	2	205	0	1	0	;
	99	132	8.0	6	2	206	0	1	0	;
	100	125	6.0	7	2	207	0	1	0	;
	100	131	10.0	8	2	208	0	1	0	;
	100	123	8.0	9	2	209	0	1	0	;
	101	124	6.0	10	2	210	0	1	0	;
	101	126	8.0	11	2	211	0	1	0	;
	101	129	9.0	12	2	212	0	1	0	;
	102	122	9.0	13	2	213	0	1	0	;
	102	125	8.0	14	2	214	0	1	0	;
	102	128	6.0	15	2	215	0	1	0	;
	103	128	7.0	16	2	216	0	1	0	;
	103	138	6.0	17	2	217	0	1	0	;
	104	136	9.0	18	2	218	0	1	0	;
	104	129	14.0	19	2	219	0	1	0	;
	104	126	6.0	20	2	220	0	1	0	;
	104	127	7.0	21	2	221	0	1	0	;
	105	125	9.0	22	2	222	0	1	0	;
	105	128	14.0	23	2	223	0	1	0	;
	105	130	7.0	24	2	224	0	1	0	;
	106	137	12.0	25	2	225	0	1	0	;
	106	129	7.0	26	2	226	0	1	0	;
	106	131	9.0	27	2	227	0	1	0	;
	106	135	10.0	28	2	228	0	1	0	;
	106	136	8.0	29	2	229	0	1	0	;
	107	124	10.0	30	2	230	0	1	0	;
	107	130	9.0	31	2	231	0	1	0	;
	107	132	10.0	32	2	232	0	1	0	;
	107	134	8.0	33	2	233	0	1	0	;
	108	131	10.0	34	2	234	0	1	0	;
	108	133	7.0	35	2	235	0	1	0	;
	108	123	8.0	36	2	236	0	1	0	;
	109	144	8.0	37	2	237	0	1	0	;
	109	132	7.0	38	2	238	0	1	0	;
	110	131	8.0	39	2	239	0	1	0	;
	110	135	9.0	40	2	240	0	1	0	;
	110	143	8.0	41	2	241	0	1	0	;
	111	130	10.0	42	2	242	0	1	0	;
	111	134	9.0	43	2	243	0	1	0	;
	111	139	7.0	44	2	244	0	1	0	;
	111	142	7.0	45	2	245	0	1	0	;
	112	138	7.0	46	2	246	0	1	0	;
	112	137	6.0	47	2	247	0	1	0	;
	112	130	8.0	48	2	248	0	1	0	;
	112	128	9.0	49	2	249	0	1	0	;
	113	130	12.0	50	2	250	0	1	0	;
	113	136	6.0	51	2	251	0	1	0	;
	113	139	6.0	52	2	252	0	1	0	;
	114	127	6.0	53	2	253	0	1	0	;
	114	136	7.0	54	2	254	0	1	0	;
	114	140	8.0	55	2	255	0	1	0	;
	115	140	8.0	56	2	256	0	1	0	;
	115	137	6.0	57	2	257	0	1	0	;
	115	135	7.0	58	2	258	0	1	0	;
	116	138	8.0	59	2	259	0	1	0	;
	116	139	8.0	60	2	260	0	1	0	;
	116	141	10.0	61	2	261	0	1	0	;
	116	142	9.0	62	2	262	0	1	0	;
	117	140	10.0	63	2	263	0	1	0	;
	117	142	6.0	64	2	264	0	1	0	;
	117	144	7.0	65	2	265	0	1	0	;
	118	143	8.0	66	2	266	0	1	0	;
	118	141	6.0	67	2	267	0	1	0	;
	118	135	7.0	68	2	268	0	1	0	;
	118	140	9.0	69	2	269	0	1	0	;
	119	134	8.0	70	2	270	0	1	0	;
	119	142	8.0	71	2	271	0	1	0	;
	119	144	6.0	72	2	272	0	1	0	;
	120	141	7.0	73	2	273	0	1	0	;
	120	133	8.0	74	2	274	0	1	0	;
	120	143	6.0	75	2	275	0	1	0	;
	97	121	4.0	-1	2	276	0	1	0	;
	98	122	4.0	-1	2	277	0	1	0	;
	99	123	4.0	-1	2	278	0	1	0	;
	100	124	4.0	-1	2	279	0	1	0	;
	101	125	4.0	-1	2	280	0	1	0	;
	102	126	4.0	-1	2	281	0	1	0	;
	103	127	4.0	-1	2	282	0	1	0	;
	104	128	4.0	-1	2	283	0	1	0	;
	105	129	4.0	-1	2	284	0	1	0	;
	106	130	4.0	-1	2	285	0	1	0	;
	107	131	4.0	-1	2	286	0	1	0	;
	108	132	4.0	-1	2	287	0	1	0	;
	109	133	4.0	-1	2	288	0	1	0	;
	110	134	4.0	-1	2	289	0	1	0	;
	111	135	4.0	-1	2	290	0	1	0	;
	112	136	4.0	-1	2	291	0	1	0	;
	113	137	4.0	-1	2	292	0	1	0	;
	114	138	4.0	-1	2	293	0	1	0	;
	115	139	4.0	-1	2	294	0	1	0	;
	116	140	4.0	-1	2	295	0	1	0	;
	117	141	4.0	-1	2	296	0	1	0	;
	118	142	4.0	-1	2	297	0	1	0	;
	119	143	4.0	-1	2	298	0	1	0	;
	120	144	4.0	-1	2	299	0	1	0	;
	121	146	10.0	0	3	300	0	1	0	;
	121	147	8.0	1	3	301	0	1	0	;
	122	145	10.0	2	3	302	0	1	0	;
	122	150	9.0	3	3	303	0	1	0	;
	123	145	8.0	4	3	304	0	1	0	;
	123	148	8.0	5	3	305	0	1	0	;
	123	156	8.0	6	3	306	0	1	0	;
	124	149	6.0	7	3	307	0	1	0	;
	124	155	10.0	8	3	308	0	1	0	;
	124	147	8.0	9	3	309	0	1	0	;
	125	148	6.0	10	3	310	0	1	0	;
	125	150	8.0	11	3	311	0	1	0	;
	125	153	9.0	12	3	312	0	1	0	;
	126	146	9.0	13	3	313	0	1	0	;
	126	149	8.0	14	3	314	0	1	0	;
	126	152	6.0	15	3	315	0	1	0	;
	127	152	7.0	16	3	316	0	1	0	;
	127	162	6.0	17	3	317	0	1	0	;
	128	160	9.0	18	3	318	0	1	0	;
	128	153	14.0	19	3	319	0	1	0	;
	128	150	6.0	20	3	320	0	1	0	;
	128	151	7.0	21	3	321	0	1	0	;
	129	149	9.0	22	3	322	0	1	0	;
	129	152	14.0	23	3	323	0	1	0	;
	129	154	7.0	24	3	324	0	1	0	;
	130	161	12.0	25	3	325	0	1	0	;
	130	153	7.0	26	3	326	0	1	0	;
	130	155	9.0	27	3	327	0	1	0	;
	130	159	10.0	28	3	328	0	1	0	;
	130	160	8.0	29	3	329	0	1	0	;
	131	148	10.0	30	3	330	0	1	0	;
	131	154	9.0	31	3	331	0	1	0	;
	131	156	10.0	32	3	332	0	1	0	;
	131	158	8.0	33	3	333	0	1	0	;
	132	155	10.0	34	3	334	0	1	0	;
	132	157	7.0	35	3	335	0	1	0	;
	132	147	8.0	36	3	336	0	1	0	;
	133	168	8.0	37	3	337	0	1	0	;
	133	156	7.0	38	3	338	0	1	0	;
	134	155	8.0	39	3	339	0	1	0	;
	134	159	9.0	40	3	340	0	1	0	;
	134	167	8.0	41	3	341	0	1	0	;
	135	154	10.0	42	3	342	0	1	0	;
	135	158	9.0	43	3	343	0	1	0	;
	135	163	7.0	44	3	344	0	1	0	;
	135	166	7.0	45	3	345	0	1	0	;
	136	162	7.0	46	3	346	0	1	0	;
	136	161	6.0	47	3	347	0	1	0	;
	136	154	8.0	48	3	348	0	1	0	;
	136	152	9.0	49	3	349	0	1	0	;
	137	154	12.0	50	3	350	0	1	0	;
	137	160	6.0	51	3	351	0	1	0	;
	137	163	6.0	52	3	352	0	1	0	;
	138	151	6.0	53	3	353	0	1	0	;
	138	160	7.0	54	3	354	0	1	0	;
	138	164	8.0	55	3	355	0	1	0	;
	139	164	8.0	56	3	356	0	1	0	;
	139	161	6.0	57	3	357	0	1	0	;
	139	159	7.0	58	3	358	0	1	0	;
	140	162	8.0	59	3	359	0	1	0	;
	140	163	8.0	60	3	360	0	1	0	;
	140	165	10.0	61	3	361	0	1	0	;
	140	166	9.0	62	3	362	0	1	0	;
	141	164	10.0	63	3	363	0	1	0	;
	141	166	6.0	64	3	364	0	1	0	;
	141	168	7.0	65	3	365	0	1	0	;
	142	167	8.0	66	3	366	0	1	0	;
	142	165	6.0	67	3	367	0	1	0	;
	142	159	7.0	68	3	368	0	1	0	;
	142	164	9.0	69	3	369	0	1	0	;
	143	158	8.0	70	3	370	0	1	0	;
	143	166	8.0	71	3	371	0	1	0	;
	143	168	6.0	72	3	372	0	1	0	;
	144	165	7.0	73	3	373	0	1	0	;
	144	157	8.0	74	3	374	0	1	0	;
	144	167	6.0	75	3	375	0	1	0	;
	121	145	4.0	-1	3	376	0	1	0	;
	122	146	4.0	-1	3	377	0	1	0	;
	123	147	4.0	-1	3	378	0	1	0	;
	124	148	4.0	-1	3	379	0	1	0	;
	125	149	4.0	-1	3	380	0	1	0	;
	126	150	4.0	-1	3	381	0	1	0	;
	127	151	4.0	-1	3	382	0	1	0	;
	128	152	4.0	-1	3	383	0	1	0	;
	129	153	4.0	-1	3	384	0	1	0	;
	130	154	4.0	-1	3	385	0	1	0	;
	131	155	4.0	-1	3	386	0	1	0	;
	132	156	4.0	-1	3	387	0	1	0	;
	133	157	4.0	-1	3	388	0	1	0	;
	134	158	4.0	-1	3	389	0	1	0	;
	135	159	4.0	-1	3	390	0	1	0	;
	136	160	4.0	-1	3	391	0	1	0	;
	137	161	4.0	-1	3	392	0	1	0	;
	138	162	4.0	-1	3	393	0	1	0	;
	139	163	4.0	-1	3	394	0	1	0	;
	140	164	4.0	-1	3	395	0	1	0	;
	141	165	4.0	-1	3	396	0	1	0	;
	142	166	4.0	-1	3	397	0	1	0	;
	143	167	4.0	-1	3	398	0	1	0	;
	144	168	4.0	-1	3	399	0	1	0	;
	145	170	10.0	0	4	400	0	1	0	;
	145	171	8.0	1	4	401	0	1	0	;
	146	169	10.0	2	4	402	0	1	0	;
	146	174	9.0	3	4	403	0	1	0	;
	147	169	8.0	4	4	404	0	1	0	;
	147	172	8.0	5	4	405	0	1	0	;
	147	180	8.0	6	4	406	0	1	0	;
	148	173	6.0	7	4	407	0	1	0	;
	148	179	10.0	8	4	408	0	1	0	;
	148	171	8.0	9	4	409	0	1	0	;
	149	172	6.0	10	4	410	0	1	0	;
	149	174	8.0	11	4	411	0	1	0	;
	149	177	9.0	12	4	412	0	1	0	;
	150	170	9.0	13	4	413	0	1	0	;
	150	173	8.0	14	4	414	0	1	0	;
	150	176	6.0	15	4	415	0	1	0	;
	151	176	7.0	16	4	416	0	1	0	;
	151	186	6.0	17	4	417	0	1	0	;
	152	184	9.0	18	4	418	0	1	0	;
	152	177	14.0	19	4	419	0	1	0	;
	152	174	6.0	20	4	420	0	1	0	;
	152	175	7.0	21	4	421	0	1	0	;
	153	173	9.0	22	4	422	0	1	0	;
	153	176	14.0	23	4	423	0	1	0	;
	153	178	7.0	24	4	424	0	1	0	;
	154	185	12.0	25	4	425	0	1	0	;
	154	177	7.0	26	4	426	0	1	0	;
	154	179	9.0	27	4	427	0	1	0	;
	154	183	10.0	28	4	428	0	1	0	;
	154	184	8.0	29	4	429	0	1	0	;
	155	172	10.0	30	4	430	0	1	0	;
	155	178	9.0	31	4	431	0	1	0	;
	155	180	10.0	32	4	432	0	1	0	;
	155	182	8.0	33	4	433	0	1	0	;
	156	179	10.0	34	4	434	0	1	0	;
	156	181	7.0	35	4	435	0	1	0	;
	156	171	8.0	36	4	436	0	1	0	;
	157	192	8.0	37	4	437	0	1	0	;
	157	180	7.0	38	4	438	0	1	0	;
	158	179	8.0	39	4	439	0	1	0	;
	158	183	9.0	40	4	440	0	1	0	;
	158	191	8.0	41	4	441	0	1	0	;
	159	178	10.0	42	4	442	0	1	0	;
	159	182	9.0	43	4	443	0	1	0	;
	159	187	7.0	44	4	444	0	1	0	;
	159	190	7.0	45	4	445	0	1	0	;
	160	186	7.0	46	4	446	0	1	0	;
	160	185	6.0	47	4	447	0	1	0	;
	160	178	8.0	48	4	448	0	1	0	;
	160	176	9.0	49	4	449	0	1	0	;
	161	178	12.0	50	4	450	0	1	0	;
	161	184	6.0	51	4	451	0	1	0	;
	161	187	6.0	52	4	452	0	1	0	;
	162	175	6.0	53	4	453	0	1	0	;
	162	184	7.0	54	4	454	0	1	0	;
	162	188	8.0	55	4	455	0	1	0	;
	163	188	8.0	56	4	456	0	1	0	;
	163	185	6.0	57	4	457	0	1	0	;
	163	183	7.0	58	4	458	0	1	0	;
	164	186	8.0	59	4	459	0	1	0	;
	164	187	8.0	60	4	460	0	1	0	;
	164	189	10.0	61	4	461	0	1	0	;
	164	190	9.0	62	4	462	0	1	0	;
	165	188	10.0	63	4	463	0	1	0	;
	165	190	6.0	64	4	464	0	1	0	;
	165	192	7.0	65	4	465	0	1	0	;
	166	191	8.0	66	4	466	0	1	0	;
	166	189	6.0	67	4	467	0	1	0	;
	166	183	7.0	68	4	468	0	1	0	;
	166	188	9.0	69	4	469	0	1	0	;
	167	182	8.0	70	4	470	0	1	0	;
	167	190	8.0	71	4	471	0	1	0	;
	167	192	6.0	72	4	472	0	1	0	;
	168	189	7.0	73	4	473	0	1	0	;
	168	181	8.0	74	4	474	0	1	0	;
	168	191	6.0	75	4	475	0	1	0	;
	145	169	4.0	-1	4	476	0	1	0	;
	146	170	4.0	-1	4	477	0	1	0	;
	147	171	4.0	-1	4	478	0	1	0	;
	148	172	4.0	-1	4	479	0	1	0	;
	149	173	4.0	-1	4	480	0	1	0	;
	150	174	4.0	-1	4	481	0	1	0	;
	151	175	4.0	-1	4	482	0	1	0	;
	152	176	4.0	-1	4	483	0	1	0	;
	153	177	4.0	-1	4	484	0	1	0	;
	154	178	4.0	-1	4	485	0	1	0	;
	155	179	4.0	-1	4	486	0	1	0	;
	156	180	4.0	-1	4	487	0	1	0	;
	157	181	4.0	-1	4	488	0	1	0	;
	158	182	4.0	-1	4	489	0	1	0	;
	159	183	4.0	-1	4	490	0	1	0	;
	160	184	4.0	-1	4	491	0	1	0	;
	161	185	4.0	-1	4	492	0	1	0	;
	162	186	4.0	-1	4	493	0	1	0	;
	163	187	4.0	-1	4	494	0	1	0	;
	164	188	4.0	-1	4	495	0	1	0	;
	165	189	4.0	-1	4	496	0	1	0	;
	166	190	4.0	-1	4	497	0	1	0	;
	167	191	4.0	-1	4	498	0	1	0	;
	168	192	4.0	-1	4	499	0	1	0	;
	169	194	10.0	0	5	500	0	1	0	;
	169	195	8.0	1	5	501	0	1	0	;
	170	193	10.0	2	5	502	0	1	0	;
	170	198	9.0	3	5	503	0	1	0	;
	171	193	8.0	4	5	504	0	1	0	;
	171	196	8.0	5	5	505	0	1	0	;
	171	204	8.0	6	5	506	0	1	0	;
	172	197	6.0	7	5	507	0	1	0	;
	172	203	10.0	8	5	508	0	1	0	;
	172	195	8.0	9	5	509	0	1	0	;
	173	196	6.0	10	5	510	0	1	0	;
	173	198	8.0	11	5	511	0	1	0	;
	173	201	9.0	12	5	512	0	1	0	;
	174	194	9.0	13	5	513	0	1	0	;
	174	197	8.0	14	5	514	0	1	0	;
	174	200	6.0	15	5	515	0	1	0	;
	175	200	7.0	16	5	516	0	1	0	;
	175	210	6.0	17	5	517	0	1	0	;
	176	208	9.0	18	5	518	0	1	0	;
	176	201	14.0	19	5	519	0	1	0	;
	176	198	6.0	20	5	520	0	1	0	;
	176	199	7.0	21	5	521	0	1	0	;
	177	197	9.0	22	5	522	0	1	0	;
	177	200	14.0	23	5	523	0	1	0	;
	177	202	7.0	24	5	524	0	1	0	;
	178	209	12.0	25	5	525	0	1	0	;
	178	201	7.0	26	5	526	0	1	0	;
	178	203	9.0	27	5	527	0	1	0	;
	178	207	10.0	28	5	528	0	1	0	;
	178	208	8.0	29	5	529	0	1	0	;
	179	196	10.0	30	5	530	0	1	0	;
	179	202	9.0	31	5	531	0	1	0	;
	179	204	10.0	32	5	532	0	1	0	;
	179	206	8.0	33	5	533	0	1	0	;
	180	203	10.0	34	5	534	0	1	0	;
	180	205	7.0	35	5	535	0	1	0	;
	180	195	8.0	36	5	536	0	1	0	;
	181	216	8.0	37	5	537	0	1	0	;
	181	204	7.0	38	5	538	0	1	0	;
	182	203	8.0	39	5	539	0	1	0	;
	182	207	9.0	40	5	540	0	1	0	;
	182	215	8.0	41	5	541	0	1	0	;
	183	202	10.0	42	5	542	0	1	0	;
	183	206	9.0	43	5	543	0	1	0	;
	183	211	7.0	44	5	544	0	1	0	;
	183	214	7.0	45	5	545	0	1	0	;
	184	210	7.0	46	5	546	0	1	0	;
	184	209	6.0	47	5	547	0	1	0	;
	184	202	8.0	48	5	548	0	1	0	;
	184	200	9.0	49	5	549	0	1	0	;
	185	202	12.0	50	5	550	0	1	0	;
	185	208	6.0	51	5	551	0	1	0	;
	185	211	6.0	52	5	552	0	1	0	;
	186	199	6.0	53	5	553	0	1	0	;
	186	208	7.0	54	5	554	0	1	0	;
	186	212	8.0	55	5	555	0	1	0	;
	187	212	8.0	56	5	556	0	1	0	;
	187	209	6.0	57	5	557	0	1	0	;
	187	207	7.0	58	5	558	0	1	0	;
	188	210	8.0	59	5	559	0	1	0	;
	188	211	8.0	60	5	560	0	1	0	;
	188	213	10.0	61	5	561	0	1	0	;
	188	214	9.0	62	5	562	0	1	0	;
	189	212	10.0	63	5	563	0	1	0	;
	189	214	6.0	64	5	564	0	1	0	;
	189	216	7.0	65	5	565	0	1	0	;
	190	215	8.0	66	5	566	0	1	0	;
	190	213	6.0	67	5	567	0	1	0	;
	190	207	7.0	68	5	568	0	1	0	;
	190	212	9.0	69	5	569	0	1	0	;
	191	206	8.0	70	5	570	0	1	0	;
	191	214	8.0	71	5	571	0	1	0	;
	191	216	6.0	72	5	572	0	1	0	;
	192	213	7.0	73	5	573	0	1	0	;
	192	205	8.0	74	5	574	0	1	0	;
	192	215	6.0	75	5	575	0	1	0	;
	169	193	4.0	-1	5	576	0	1	0	;
	170	194	4.0	-1	5	577	0	1	0	;
	171	195	4.0	-1	5	578	0	1	0	;
	172	196	4.0	-1	5	579	0	1	0	;
	173	197	4.0	-1	5	580	0	1	0	;
	174	198	4.0	-1	5	581	0	1	0	;
	175	199	4.0	-1	5	582	0	1	0	;
	176	200	4.0	-1	5	583	0	1	0	;
	177	201	4.0	-1	5	584	0	1	0	;
	178	202	4.0	-1	5	585	0	1	0	;
	179	203	4.0	-1	5	586	0	1	0	;
	180	204	4.0	-1	5	587	0	1	0	;
	181	205	4.0	-1	5	588	0	1	0	;
	182	206	4.0	-1	5	589	0	1	0	;
	183	207	4.0	-1	5	590	0	1	0	;
	184	208	4.0	-1	5	591	0	1	0	;
	185	209	4.0	-1	5	592	0	1	0	;
	186	210	4.0	-1	5	593	0	1	0	;
	187	211	4.0	-1	5	594	0	1	0	;
	188	212	4.0	-1	5	595	0	1	0	;
	189	213	4.0	-1	5	596	0	1	0	;
	190	214	4.0	-1	5	597	0	1	0	;
	191	215	4.0	-1	5	598	0	1	0	;
	192	216	4.0	-1	5	599	0	1	0	;
	193	218	10.0	0	6	600	0	1	0	;
	193	219	8.0	1	6	601	0	1	0	;
	194	217	10.0	2	6	602	0	1	0	;
	194	222	9.0	3	6	603	0	1	0	;
	195	217	8.0	4	6	604	0	1	0	;
	195	220	8.0	5	6	605	0	1	0	;
	195	228	8.0	6	6	606	0	1	0	;
	196	221	6.0	7	6	607	0	1	0	;
	196	227	10.0	8	6	608	0	1	0	;
	196	219	8.0	9	6	609	0	1	0	;
	197	220	6.0	10	6	610	0	1	0	;
	197	222	8.0	11	6	611	0	1	0	;
	197	225	9.0	12	6	612	0	1	0	;
	198	218	9.0	13	6	613	0	1	0	;
	198	221	8.0	14	6	614	0	1	0	;
	198	224	6.0	15	6	615	0	1	0	;
	199	224	7.0	16	6	616	0	1	0	;
	199	234	6.0	17	6	617	0	1	0	;
	200	232	9.0	18	6	618	0	1	0	;
	200	225	14.0	19	6	619	0	1	0	;
	200	222	6.0	20	6	620	0	1	0	;
	200	223	7.0	21	6	621	0	1	0	;
	201	221	9.0	22	6	622	0	1	0	;
	201	224	14.0	23	6	623	0	1	0	;
	201	226	7.0	24	6	624	0	1	0	;
	202	233	12.0	25	6	625	0	1	0	;
	202	225	7.0	26	6	626	0	1	0	;
	202	227	9.0	27	6	627	0	1	0	;
	202	231	10.0	28	6	628	0	1	0	;
	202	232	8.0	29	6	629	0	1	0	;
	203	220	10.0	30	6	630	0	1	0	;
	203	226	9.0	31	6	631	0	1	0	;
	203	228	10.0	32	6	632	0	1	0	;
	203	230	8.0	33	6	633	0	1	0	;
	204	227	10.0	34	6	634	0	1	0	;
	204	229	7.0	35	6	635	0	1	0	;
	204	219	8.0	36	6	636	0	1	0	;
	205	240	8.0	37	6	637	0	1	0	;
	205	228	7.0	38	6	638	0	1	0	;
	206	227	8.0	39	6	639	0	1	0	;
	206	231	9.0	40	6	640	0	1	0	;
	206	239	8.0	41	6	641	0	1	0	;
	207	226	10.0	42	6	642	0	1	0	;
	207	230	9.0	43	6	643	0	1	0	;
	207	235	7.0	44	6	644	0	1	0	;
	207	238	7.0	45	6	645	0	1	0	;
	208	234	7.0	46	6	646	0	1	0	;
	208	233	6.0	47	6	647	0	1	0	;
	208	226	8.0	48	6	648	0	1	0	;
	208	224	9.0	49	6	649	0	1	0	;
	209	226	12.0	50	6	650	0	1	0	;
	209	232	6.0	51	6	651	0	1	0	;
	209	235	6.0	52	6	652	0	1	0	;
	210	223	6.0	53	6	653	0	1	0	;
	210	232	7.0	54	6	654	0	1	0	;
	210	236	8.0	55	6	655	0	1	0	;
	211	236	8.0	56	6	656	0	1	0	;
	211	233	6.0	57	6	657	0	1	0	;
	211	231	7.0	58	6	658	0	1	0	;
	212	234	8.0	59	6	659	0	1	0	;
	212	235	8.0	60	6	660	0	1	0	;
	212	237	10.0	61	6	661	0	1	0	;
	212	238	9.0	62	6	662	0	1	0	;
	213	236	10.0	63	6	663	0	1	0	;
	213	238	6.0	64	6	664	0	1	0	;
	213	240	7.0	65	6	665	0	1	0	;
	214	239	8.0	66	6	666	0	1	0	;
	214	237	6.0	67	6	667	0	1	0	;
	214	231	7.0	68	6	668	0	1	0	;
	214	236	9.0	69	6	669	0	1	0	;
	215	230	8.0	70	6	670	0	1	0	;
	215	238	8.0	71	6	671	0	1	0	;
	215	240	6.0	72	6	672	0	1	0	;
	216	237	7.0	73	6	673	0	1	0	;
	216	229	8.0	74	6	674	0	1	0	;
	216	239	6.0	75	6	675	0	1	0	;
	193	217	4.0	-1	6	676	0	1	0	;
	194	218	4.0	-1	6	677	0	1	0	;
	195	219	4.0	-1	6	678	0	1	0	;
	196	220	4.0	-1	6	679	0	1	0	;
	197	221	4.0	-1	6	680	0	1	0	;
	198	222	4.0	-1	6	681	0	1	0	;
	199	223	4.0	-1	6	682	0	1	0	;
	200	224	4.0	-1	6	683	0	1	0	;
	201	225	4.0	-1	6	684	0	1	0	;
	202	226	4.0	-1	6	685	0	1	0	;
	203	227	4.0	-1	6	686	0	1	0	;
	204	228	4.0	-1	6	687	0	1	0	;
	205	229	4.0	-1	6	688	0	1	0	;
	206	230	4.0	-1	6	689	0	1	0	;
	207	231	4.0	-1	6	690	0	1	0	;
	208	232	4.0	-1	6	691	0	1	0	;
	209	233	4.0	-1	6	692	0	1	0	;
	210	234	4.0	-1	6	693	0	1	0	;
	211	235	4.0	-1	6	694	0	1	0	;
	212	236	4.0	-1	6	695	0	1	0	;
	213	237	4.0	-1	6	696	0	1	0	;
	214	238	4.0	-1	6	697	0	1	0	;
	215	239	4.0	-1	6	698	0	1	0	;
	216	240	4.0	-1	6	699	0	1	0	;
	217	242	10.0	0	7	700	0	1	0	;
	217	243	8.0	1	7	701	0	1	0	;
	218	241	10.0	2	7	702	0	1	0	;
	218	246	9.0	3	7	703	0	1	0	;
	219	241	8.0	4	7	704	0	1	0	;
	219	244	8.0	5	7	705	0	1	0	;
	219	252	8.0	6	7	706	0	1	0	;
	220	245	6.0	7	7	707	0	1	0	;
	220	251	10.0	8	7	708	0	1	0	;
	220	243	8.0	9	7	709	0	1	0	;
	221	244	6.0	10	7	710	0	1	0	;
	221	246	8.0	11	7	711	0	1	0	;
	221	249	9.0	12	7	712	0	1	0	;
	222	242	9.0	13	7	713	0	1	0	;
	222	245	8.0	14	7	714	0	1	0	;
	222	248	6.0	15	7	715	0	1	0	;
	223	248	7.0	16	7	716	0	1	0	;
	223	258	6.0	17	7	717	0	1	0	;
	224	256	9.0	18	7	718	0	1	0	;
	224	249	14.0	19	7	719	0	1	0	;
	224	246	6.0	20	7	720	0	1	0	;
	224	247	7.0	21	7	721	0	1	0	;
	225	245	9.0	22	7	722	0	1	0	;
	225	248	14.0	23	7	723	0	1	0	;
	225	250	7.0	24	7	724	0	1	0	;
	226	257	12.0	25	7	725	0	1	0	;
	226	249	7.0	26	7	726	0	1	0	;
	226	251	9.0	27	7	727	0	1	0	;
	226	255	10.0	28	7	728	0	1	0	;
	226	256	8.0	29	7	729	0	1	0	;
	227	244	10.0	30	7	730	0	1	0	;
	227	250	9.0	31	7	731	0	1	0	;
	227	252	10.0	32	7	732	0	1	0	;
	227	254	8.0	33	7	733	0	1	0	;
	228	251	10.0	34	7	734	0	1	0	;
	228	253	7.0	35	7	735	0	1	0	;
	228	243	8.0	36	7	736	0	1	0	;
	229	264	8.0	37	7	737	0	1	0	;
	229	252	7.0	38	7	738	0	1	0	;
	230	251	8.0	39	7	739	0	1	0	;
	230	255	9.0	40	7	740	0	1	0	;
	230	263	8.0	41	7	741	0	1	0	;
	231	250	10.0	42	7	742	0	1	0	;
	231	254	9.0	43	7	743	0	1	0	;
	231	259	7.0	44	7	744	0	1	0	;
	231	262	7.0	45	7	745	0	1	0	;
	232	258	7.0	46	7	746	0	1	0	;
	232	257	6.0	47	7	747	0	1	0	;
	232	250	8.0	48	7	748	0	1	0	;
	232	248	9.0	49	7	749	0	1	0	;
	233	250	12.0	50	7	750	0	1	0	;
	233	256	6.0	51	7	751	0	1	0	;
	233	259	6.0	52	7	752	0	1	0	;
	234	247	6.0	53	7	753	0	1	0	;
	234	256	7.0	54	7	754	0	1	0	;
	234	260	8.0	55	7	755	0	1	0	;
	235	260	8.0	56	7	756	0	1	0	;
	235	257	6.0	57	7	757	0	1	0	;
	235	255	7.0	58	7	758	0	1	0	;
	236	258	8.0	59	7	759	0	1	0	;
	236	259	8.0	60	7	760	0	1	0	;
	236	261	10.0	61	7	761	0	1	0	;
	236	262	9.0	62	7	762	0	1	0	;
	237	260	10.0	63	7	763	0	1	0	;
	237	262	6.0	64	7	764	0	1	0	;
	237	264	7.0	65	7	765	0	1	0	;
	238	263	8.0	66	7	766	0	1	0	;
	238	261	6.0	67	7	767	0	1	0	;
	238	255	7.0	68	7	768	0	1	0	;
	238	260	9.0	69	7	769	0	1	0	;
	239	254	8.0	70	7	770	0	1	0	;
	239	262	8.0	71	7	771	0	1	0	;
	239	264	6.0	72	7	772	0	1	0	;
	240	261	7.0	73	7	773	0	1	0	;
	240	253	8.0	74	7	774	0	1	0	;
	240	263	6.0	75	7	775	0	1	0	;
	217	241	4.0	-1	7	776	0	1	0	;
	218	242	4.0	-1	7	777	0	1	0	;
	219	243	4.0	-1	7	778	0	1	0	;
	220	244	4.0	-1	7	779	0	1	0	;
	221	245	4.0	-1	7	780	0	1	0	;
	222	246	4.0	-1	7	781	0	1	0	;
	223	247	4.0	-1	7	782	0	1	0	;
	224	248	4.0	-1	7	783	0	1	0	;
	225	249	4.0	-1	7	784	0	1	0	;
	226	250	4.0	-1	7	785	0	1	0	;
	227	251	4.0	-1	7	786	0	1	0	;
	228	252	4.0	-1	7	787	0	1	0	;
	229	253	4.0	-1	7	788	0	1	0	;
	230	254	4.0	-1	7	789	0	1	0	;
	231	255	4.0	-1	7	790	0	1	0	;
	232	256	4.0	-1	7	791	0	1	0	;
	233	257	4.0	-1	7	792	0	1	0	;
	234	258	4.0	-1	7	793	0	1	0	;
	235	259	4.0	-1	7	794	0	1	0	;
	236	260	4.0	-1	7	795	0	1	0	;
	237	261	4.0	-1	7	796	0	1	0	;
	238	262	4.0	-1	7	797	0	1	0	;
	239	263	4.0	-1	7	798	0	1	0	;
	240	264	4.0	-1	7	799	0	1	0	;
	241	266	10.0	0	8	800	0	1	0	;
	241	267	8.0	1	8	801	0	1	0	;
	242	265	10.0	2	8	802	0	1	0	;
	242	270	9.0	3	8	803	0	1	0	;
	243	265	8.0	4	8	804	0	1	0	;
	243	268	8.0	5	8	805	0	1	0	;
	243	276	8.0	6	8	806	0	1	0	;
	244	269	6.0	7	8	807	0	1	0	;
	244	275	10.0	8	8	808	0	1	0	;
	244	267	8.0	9	8	809	0	1	0	;
	245	268	6.0	10	8	810	0	1	0	;
	245	270	8.0	11	8	811	0	1	0	;
	245	273	9.0	12	8	812	0	1	0	;
	246	266	9.0	13	8	813	0	1	0	;
	246	269	8.0	14	8	814	0	1	0	;
	246	272	6.0	15	8	815	0	1	0	;
	247	272	7.0	16	8	816	0	1	0	;
	247	282	6.0	17	8	817	0	1	0	;
	248	280	9.0	18	8	818	0	1	0	;
	248	273	14.0	19	8	819	0	1	0	;
	248	270	6.0	20	8	820	0	1	0	;
	248	271	7.0	21	8	821	0	1	0	;
	249	269	9.0	22	8	822	0	1	0	;
	249	272	14.0	23	8	823	0	1	0	;
	249	274	7.0	24	8	824	0	1	0	;
	250	281	12.0	25	8	825	0	1	0	;
	250	273	7.0	26	8	826	0	1	0	;
	250	275	9.0	27	8	827	0	1	0	;
	250	279	10.0	28	8	828	0	1	0	;
	250	280	8.0	29	8	829	0	1	0	;
	251	268	10.0	30	8	830	0	1	0	;
	251	274	9.0	31	8	831	0	1	0	;
	251	276	10.0	32	8	832	0	1	0	;
	251	278	8.0	33	8	833	0	1	0	;
	252	275	10.0	34	8	834	0	1	0	;
	252	277	7.0	35	8	835	0	1	0	;
	252	267	8.0	36	8	836	0	1	0	;
	253	288	8.0	37	8	837	0	1	0	;
	253	276	7.0	38	8	838	0	1	0	;
	254	275	8.0	39	8	839	0	1	0	;
	254	279	9.0	40	8	840	0	1	0	;
	254	287	8.0	41	8	841	0	1	0	;
	255	274	10.0	42	8	842	0	1	0	;
	255	278	9.0	43	8	843	0	1	0	;
	255	283	7.0	44	8	844	0	1	0	;
	255	286	7.0	45	8	845	0	1	0	;
	256	282	7.0	46	8	846	0	1	0	;
	256	281	6.0	47	8	847	0	1	0	;
	256	274	8.0	48	8	848	0	1	0	;
	256	272	9.0	49	8	849	0	1	0	;
	257	274	12.0	50	8	850	0	1	0	;
	257	280	6.0	51	8	851	0	1	0	;
	257	283	6.0	52	8	852	0	1	0	;
	258	271	6.0	53	8	853	0	1	0	;
	258	280	7.0	54	8	854	0	1	0	;
	258	284	8.0	55	8	855	0	1	0	;
	259	284	8.0	56	8	856	0	1	0	;
	259	281	6.0	57	8	857	0	1	0	;
	259	279	7.0	58	8	858	0	1	0	;
	260	282	8.0	59	8	859	0	1	0	;
	260	283	8.0	60	8	860	0	1	0	;
	260	285	10.0	61	8	861	0	1	0	;
	260	286	9.0	62	8	862	0	1	0	;
	261	284	10.0	63	8	863	0	1	0	;
	261	286	6.0	64	8	864	0	1	0	;
	261	288	7.0	65	8	865	0	1	0	;
	262	287	8.0	66	8	866	0	1	0	;
	262	285	6.0	67	8	867	0	1	0	;
	262	279	7.0	68	8	868	0	1	0	;
	262	284	9.0	69	8	869	0	1	0	;
	263	278	8.0	70	8	870	0	1	0	;
	263	286	8.0	71	8	871	0	1	0	;
	263	288	6.0	72	8	872	0	1	0	;
	264	285	7.0	73	8	873	0	1	0	;
	264	277	8.0	74	8	874	0	1	0	;
	264	287	6.0	75	8	875	0	1	0	;
	241	265	4.0	-1	8	876	0	1	0	;
	242	266	4.0	-1	8	877	0	1	0	;
	243	267	4.0	-1	8	878	0	1	0	;
	244	268	4.0	-1	8	879	0	1	0	;
	245	269	4.0	-1	8	880	0	1	0	;
	246	270	4.0	-1	8	881	0	1	0	;
	247	271	4.0	-1	8	882	0	1	0	;
	248	272	4.0	-1	8	883	0	1	0	;
	249	273	4.0	-1	8	884	0	1	0	;
	250	274	4.0	-1	8	885	0	1	0	;
	251	275	4.0	-1	8	886	0	1	0	;
	252	276	4.0	-1	8	887	0	1	0	;
	253	277	4.0	-1	8	888	0	1	0	;
	254	278	4.0	-1	8	889	0	1	0	;
	255	279	4.0	-1	8	890	0	1	0	;
	256	280	4.0	-1	8	891	0	1	0	;
	257	281	4.0	-1	8	892	0	1	0	;
	258	282	4.0	-1	8	893	0	1	0	;
	259	283	4.0	-1	8	894	0	1	0	;
	260	284	4.0	-1	8	895	0	1	0	;
	261	285	4.0	-1	8	896	0	1	0	;
	262	286	4.0	-1	8	897	0	1	0	;
	263	287	4.0	-1	8	898	0	1	0	;
	264	288	4.0	-1	8	899	0	1	0	;
	265	290	10.0	0	9	900	0	1	0	;
	265	291	8.0	1	9	901	0	1	0	;
	266	289	10.0	2	9	902	0	1	0	;
	266	294	9.0	3	9	903	0	1	0	;
	267	289	8.0	4	9	904	0	1	0	;
	267	292	8.0	5	9	905	0	1	0	;
	267	300	8.0	6	9	906	0	1	0	;
	268	293	6.0	7	9	907	0	1	0	;
	268	299	10.0	8	9	908	0	1	0	;
	268	291	8.0	9	9	909	0	1	0	;
	269	292	6.0	10	9	910	0	1	0	;
	269	294	8.0	11	9	911	0	1	0	;
	269	297	9.0	12	9	912	0	1	0	;
	270	290	9.0	13	9	913	0	1	0	;
	270	293	8.0	14	9	914	0	1	0	;
	270	296	6.0	15	9	915	0	1	0	;
	271	296	7.0	16	9	916	0	1	0	;
	271	306	6.0	17	9	917	0	1	0	;
	272	304	9.0	18	9	918	0	1	0	;
	272	297	14.0	19	9	919	0	1	0	;
	272	294	6.0	20	9	920	0	1	0	;
	272	295	7.0	21	9	921	0	1	0	;
	273	293	9.0	22	9	922	0	1	0	;
	273	296	14.0	23	9	923	0	1	0	;
	273	298	7.0	24	9	924	0	1	0	;
	274	305	12.0	25	9	925	0	1	0	;
	274	297	7.0	26	9	926	0	1	0	;
	274	299	9.0	27	9	927	0	1	0	;
	274	303	10.0	28	9	928	0	1	0	;
	274	304	8.0	29	9	929	0	1	0	;
	275	292	10.0	30	9	930	0	1	0	;
	275	298	9.0	31	9	931	0	1	0	;
	275	300	10.0	32	9	932	0	1	0	;
	275	302	8.0	33	9	933	0	1	0	;
	276	299	10.0	34	9	934	0	1	0	;
	276	301	7.0	35	9	935	0	1	0	;
	276	291	8.0	36	9	936	0	1	0	;
	277	312	8.0	37	9	937	0	1	0	;
	277	300	7.0	38	9	938	0	1	0	;
	278	299	8.0	39	9	939	0	1	0	;
	278	303	9.0	40	9	940	0	1	0	;
	278	311	8.0	41	9	941	0	1	0	;
	279	298	10.0	42	9	942	0	1	0	;
	279	302	9.0	43	9	943	0	1	0	;
	279	307	7.0	44	9	944	0	1	0	;
	279	310	7.0	45	9	945	0	1	0	;
	280	306	7.0	46	9	946	0	1	0	;
	280	305	6.0	47	9	947	0	1	0	;
	280	298	8.0	48	9	948	0	1	0	;
	280	296	9.0	49	9	949	0	1	0	;
	281	298	12.0	50	9	950	0	1	0	;
	281	304	6.0	51	9	951	0	1	0	;
	281	307	6.0	52	9	952	0	1	0	;
	282	295	6.0	53	9	953	0	1	0	;
	282	304	7.0	54	9	954	0	1	0	;
	282	308	8.0	55	9	955	0	1	0	;
	283	308	8.0	56	9	956	0	1	0	;
	283	305	6.0	57	9	957	0	1	0	;
	283	303	7.0	58	9	958	0	1	0	;
	284	306	8.0	59	9	959	0	1	0	;
	284	307	8.0	60	9	960	0	1	0	;
	284	309	10.0	61	9	961	0	1	0	;
	284	310	9.0	62	9	962	0	1	0	;
	285	308	10.0	63	9	963	0	1	0	;
	285	310	6.0	64	9	964	0	1	0	;
	285	312	7.0	65	9	965	0	1	0	;
	286	311	8.0	66	9	966	0	1	0	;
	286	309	6.0	67	9	967	0	1	0	;
	286	303	7.0	68	9	968	0	1	0	;
	286	308	9.0	69	9	969	0	1	0	;
	287	302	8.0	70	9	970	0	1	0	;
	287	310	8.0	71	9	971	0	1	0	;
	287	312	6.0	72	9	972	0	1	0	;
	288	309	7.0	73	9	973	0	1	0	;
	288	301	8.0	74	9	974	0	1	0	;
	288	311	6.0	75	9	975	0	1	0	;
	265	289	4.0	-1	9	976	0	1	0	;
	266	290	4.0	-1	9	977	0	1	0	;
	267	291	4.0	-1	9	978	0	1	0	;
	268	292	4.0	-1	9	979	0	1	0	;
	269	293	4.0	-1	9	980	0	1	0	;
	270	294	4.0	-1	9	981	0	1	0	;
	271	295	4.0	-1	9	982	0	1	0	;
	272	296	4.0	-1	9	983	0	1	0	;
	273	297	4.0	-1	9	984	0	1	0	;
	274	298	4.0	-1	9	985	0	1	0	;
	275	299	4.0	-1	9	986	0	1	0	;
	276	300	4.0	-1	9	987	0	1	0	;
	277	301	4.0	-1	9	988	0	1	0	;
	278	302	4.0	-1	9	989	0	1	0	;
	279	303	4.0	-1	9	990	0	1	0	;
	280	304	4.0	-1	9	991	0	1	0	;
	281	305	4.0	-1	9	992	0	1	0	;
	282	306	4.0	-1	9	993	0	1	0	;
	283	307	4.0	-1	9	994	0	1	0	;
	284	308	4.0	-1	9	995	0	1	0	;
	285	309	4.0	-1	9	996	0	1	0	;
	286	310	4.0	-1	9	997	0	1	0	;
	287	311	4.0	-1	9	998	0	1	0	;
	288	312	4.0	-1	9	999	0	1	0	;
	289	314	10.0	0	10	1000	0	1	0	;
	289	315	8.0	1	10	1001	0	1	0	;
	290	313	10.0	2	10	1002	0	1	0	;
	290	318	9.0	3	10	1003	0	1	0	;