<NUMBER OF ZONES> 4
<NUMBER OF NODES> 4
<FIRST THRU NODE> 1
<NUMBER OF LINKS> 4
<ORIGINAL HEADER> 
<END OF METADATA>


~	init_node	term_node	capacity	free_flow_time	;
	1	2	3147.0	5.0	;
	1	3	2956.0	5.0	;
	2	4	3575.0	5.0	;
	3	4	4042.0	5.0	;