<NUMBER OF ZONES> 4
<TOTAL OD FLOW> 10000
<END OF METADATA>



Origin  1
	5 :	911.0;	6 :	234.0;	7 :	474.0;	8 :	358.0;

Origin  2
	5 :	1083.0;	6 :	29.0;	7 :	381.0;	8 :	278.0;

Origin  3
	5 :	1224.0;	6 :	643.0;	7 :	248.0;	8 :	1257.0;

Origin  4
	5 :	770.0;	6 :	443.0;	7 :	888.0;	8 :	779.0;