<NUMBER OF ZONES> 4
<NUMBER OF NODES> 480
<FIRST THRU NODE> 1
<NUMBER OF LINKS> 1444
<ORIGINAL HEADER> 
<END OF METADATA>


~	init_node	term_node	capacity	free_flow_time	original_link	time	;
	1	27	259.00200639999997	6	0	0	;
	1	28	234.0347319	4	1	0	;
	2	45	50.599123399999996	6	2	0	;
	2	46	50.75697193	5	3	0	;
	2	44	50.026075629999994	4	4	0	;
	2	43	234.0347319	4	5	0	;
	3	25	259.00200639999997	6	6	0	;
	3	31	49.58180928	5	7	0	;
	4	37	234.0347319	4	8	0	;
	4	25	234.0347319	4	9	0	;
	4	29	171.1052372	4	10	0	;
	5	28	171.1052372	4	11	0	;
	5	30	177.82794099999998	2	12	0	;
	5	36	49.0882673	6	13	0	;
	6	29	177.82794099999998	2	14	0	;
	6	31	49.47995469000001	4	15	0	;
	6	34	100.0	5	16	0	;
	7	27	49.58180928	5	17	0	;
	7	30	49.47995469000001	4	18	0	;
	7	33	48.98587646	2	19	0	;
	8	33	78.4181131	3	20	0	;
	8	43	234.0347319	2	21	0	;
	9	34	50.50193156	10	22	0	;
	9	41	50.45822583	5	23	0	;
	9	31	48.98587646	2	24	0	;
	9	32	78.4181131	3	25	0	;
	10	30	100.0	5	26	0	;
	10	33	50.50193156	10	27	0	;
	10	35	139.1578842	3	28	0	;
	11	41	48.54917717000001	4	29	0	;
	11	42	49.93510694	8	30	0	;
	11	36	100.0	5	31	0	;
	11	34	139.1578842	3	32	0	;
	11	40	135.12001550000002	6	33	0	;
	12	29	49.0882673	6	34	0	;
	12	37	49.0882673	6	35	0	;
	12	39	48.76508287	4	36	0	;
	12	35	100.0	5	37	0	;
	13	28	234.0347319	4	38	0	;
	13	36	49.0882673	6	39	0	;
	13	38	259.00200639999997	3	40	0	;
	14	37	259.00200639999997	3	41	0	;
	14	48	50.91256152	4	42	0	;
	15	40	51.27526119	5	43	0	;
	15	36	48.76508287	4	44	0	;
	15	47	49.247906050000005	4	45	0	;
	16	35	135.12001550000002	6	46	0	;
	16	46	95.99180565	3	47	0	;
	16	44	145.6475315	3	48	0	;
	16	39	51.27526119	5	49	0	;
	17	35	48.54917717000001	4	50	0	;
	17	42	52.299100630000005	2	51	0	;
	17	43	196.79896710000003	3	52	0	;
	17	33	50.45822583	5	53	0	;
	18	41	52.299100630000005	2	54	0	;
	18	44	48.239508310000005	2	55	0	;
	18	35	49.93510694	8	56	0	;
	19	32	234.0347319	2	57	0	;
	19	41	196.79896710000003	3	58	0	;
	19	26	234.0347319	4	59	0	;
	20	26	50.026075629999994	4	60	0	;
	20	40	145.6475315	3	61	0	;
	20	42	48.239508310000005	2	62	0	;
	21	26	50.599123399999996	6	63	0	;
	21	46	52.299100630000005	2	64	0	;
	21	48	48.85357564	3	65	0	;
	22	40	95.99180565	3	66	0	;
	22	26	50.75697193	5	67	0	;
	22	45	52.299100630000005	2	68	0	;
	22	47	50.0	4	69	0	;
	23	39	49.247906050000005	4	70	0	;
	23	46	50.0	4	71	0	;
	23	48	50.78508436	2	72	0	;
	24	45	48.85357564	3	73	0	;
	24	38	50.91256152	4	74	0	;
	24	47	50.78508436	2	75	0	;
	25	51	259.00200639999997	6	0	1	;
	25	52	234.0347319	4	1	1	;
	26	69	50.599123399999996	6	2	1	;
	26	70	50.75697193	5	3	1	;
	26	68	50.026075629999994	4	4	1	;
	26	67	234.0347319	4	5	1	;
	27	49	259.00200639999997	6	6	1	;
	27	55	49.58180928	5	7	1	;
	28	61	234.0347319	4	8	1	;
	28	49	234.0347319	4	9	1	;
	28	53	171.1052372	4	10	1	;
	29	52	171.1052372	4	11	1	;
	29	54	177.82794099999998	2	12	1	;
	29	60	49.0882673	6	13	1	;
	30	53	177.82794099999998	2	14	1	;
	30	55	49.47995469000001	4	15	1	;
	30	58	100.0	5	16	1	;
	31	51	49.58180928	5	17	1	;
	31	54	49.47995469000001	4	18	1	;
	31	57	48.98587646	2	19	1	;
	32	57	78.4181131	3	20	1	;
	32	67	234.0347319	2	21	1	;
	33	58	50.50193156	10	22	1	;
	33	65	50.45822583	5	23	1	;
	33	55	48.98587646	2	24	1	;
	33	56	78.4181131	3	25	1	;
	34	54	100.0	5	26	1	;
	34	57	50.50193156	10	27	1	;
	34	59	139.1578842	3	28	1	;
	35	65	48.54917717000001	4	29	1	;
	35	66	49.93510694	8	30	1	;
	35	60	100.0	5	31	1	;
	35	58	139.1578842	3	32	1	;
	35	64	135.12001550000002	6	33	1	;
	36	53	49.0882673	6	34	1	;
	36	61	49.0882673	6	35	1	;
	36	63	48.76508287	4	36	1	;
	36	59	100.0	5	37	1	;
	37	52	234.0347319	4	38	1	;
	37	60	49.0882673	6	39	1	;
	37	62	259.00200639999997	3	40	1	;
	38	61	259.00200639999997	3	41	1	;
	38	72	50.91256152	4	42	1	;
	39	64	51.27526119	5	43	1	;
	39	60	48.76508287	4	44	1	;
	39	71	49.247906050000005	4	45	1	;
	40	59	135.12001550000002	6	46	1	;
	40	70	95.99180565	3	47	1	;
	40	68	145.6475315	3	48	1	;
	40	63	51.27526119	5	49	1	;
	41	59	48.54917717000001	4	50	1	;
	41	66	52.299100630000005	2	51	1	;
	41	67	196.79896710000003	3	52	1	;
	41	57	50.45822583	5	53	1	;
	42	65	52.299100630000005	2	54	1	;
	42	68	48.239508310000005	2	55	1	;
	42	59	49.93510694	8	56	1	;
	43	56	234.0347319	2	57	1	;
	43	65	196.79896710000003	3	58	1	;
	43	50	234.0347319	4	59	1	;
	44	50	50.026075629999994	4	60	1	;
	44	64	145.6475315	3	61	1	;
	44	66	48.239508310000005	2	62	1	;
	45	50	50.599123399999996	6	63	1	;
	45	70	52.299100630000005	2	64	1	;
	45	72	48.85357564	3	65	1	;
	46	64	95.99180565	3	66	1	;
	46	50	50.75697193	5	67	1	;
	46	69	52.299100630000005	2	68	1	;
	46	71	50.0	4	69	1	;
	47	63	49.247906050000005	4	70	1	;
	47	70	50.0	4	71	1	;
	47	72	50.78508436	2	72	1	;
	48	69	48.85357564	3	73	1	;
	48	62	50.91256152	4	74	1	;
	48	71	50.78508436	2	75	1	;
	49	75	259.00200639999997	6	0	2	;
	49	76	234.0347319	4	1	2	;
	50	93	50.599123399999996	6	2	2	;
	50	94	50.75697193	5	3	2	;
	50	92	50.026075629999994	4	4	2	;
	50	91	234.0347319	4	5	2	;
	51	73	259.00200639999997	6	6	2	;
	51	79	49.58180928	5	7	2	;
	52	85	234.0347319	4	8	2	;
	52	73	234.0347319	4	9	2	;
	52	77	171.1052372	4	10	2	;
	53	76	171.1052372	4	11	2	;
	53	78	177.82794099999998	2	12	2	;
	53	84	49.0882673	6	13	2	;
	54	77	177.82794099999998	2	14	2	;
	54	79	49.47995469000001	4	15	2	;
	54	82	100.0	5	16	2	;
	55	75	49.58180928	5	17	2	;
	55	78	49.47995469000001	4	18	2	;
	55	81	48.98587646	2	19	2	;
	56	81	78.4181131	3	20	2	;
	56	91	234.0347319	2	21	2	;
	57	82	50.50193156	10	22	2	;
	57	89	50.45822583	5	23	2	;
	57	79	48.98587646	2	24	2	;
	57	80	78.4181131	3	25	2	;
	58	78	100.0	5	26	2	;
	58	81	50.50193156	10	27	2	;
	58	83	139.1578842	3	28	2	;
	59	89	48.54917717000001	4	29	2	;
	59	90	49.93510694	8	30	2	;
	59	84	100.0	5	31	2	;
	59	82	139.1578842	3	32	2	;
	59	88	135.12001550000002	6	33	2	;
	60	77	49.0882673	6	34	2	;
	60	85	49.0882673	6	35	2	;
	60	87	48.76508287	4	36	2	;
	60	83	100.0	5	37	2	;
	61	76	234.0347319	4	38	2	;
	61	84	49.0882673	6	39	2	;
	61	86	259.00200639999997	3	40	2	;
	62	85	259.00200639999997	3	41	2	;
	62	96	50.91256152	4	42	2	;
	63	88	51.27526119	5	43	2	;
	63	84	48.76508287	4	44	2	;
	63	95	49.247906050000005	4	45	2	;
	64	83	135.12001550000002	6	46	2	;
	64	94	95.99180565	3	47	2	;
	64	92	145.6475315	3	48	2	;
	64	87	51.27526119	5	49	2	;
	65	83	48.54917717000001	4	50	2	;
	65	90	52.299100630000005	2	51	2	;
	65	91	196.79896710000003	3	52	2	;
	65	81	50.45822583	5	53	2	;
	66	89	52.299100630000005	2	54	2	;
	66	92	48.239508310000005	2	55	2	;
	66	83	49.93510694	8	56	2	;
	67	80	234.0347319	2	57	2	;
	67	89	196.79896710000003	3	58	2	;
	67	74	234.0347319	4	59	2	;
	68	74	50.026075629999994	4	60	2	;
	68	88	145.6475315	3	61	2	;
	68	90	48.239508310000005	2	62	2	;
	69	74	50.599123399999996	6	63	2	;
	69	94	52.299100630000005	2	64	2	;
	69	96	48.85357564	3	65	2	;
	70	88	95.99180565	3	66	2	;
	70	74	50.75697193	5	67	2	;
	70	93	52.299100630000005	2	68	2	;
	70	95	50.0	4	69	2	;
	71	87	49.247906050000005	4	70	2	;
	71	94	50.0	4	71	2	;
	71	96	50.78508436	2	72	2	;
	72	93	48.85357564	3	73	2	;
	72	86	50.91256152	4	74	2	;
	72	95	50.78508436	2	75	2	;
	73	99	259.00200639999997	6	0	3	;
	73	100	234.0347319	4	1	3	;
	74	117	50.599123399999996	6	2	3	;
	74	118	50.75697193	5	3	3	;
	74	116	50.026075629999994	4	4	3	;
	74	115	234.0347319	4	5	3	;
	75	97	259.00200639999997	6	6	3	;
	75	103	49.58180928	5	7	3	;
	76	109	234.0347319	4	8	3	;
	76	97	234.0347319	4	9	3	;
	76	101	171.1052372	4	10	3	;
	77	100	171.1052372	4	11	3	;
	77	102	177.82794099999998	2	12	3	;
	77	108	49.0882673	6	13	3	;
	78	101	177.82794099999998	2	14	3	;
	78	103	49.47995469000001	4	15	3	;
	78	106	100.0	5	16	3	;
	79	99	49.58180928	5	17	3	;
	79	102	49.47995469000001	4	18	3	;
	79	105	48.98587646	2	19	3	;
	80	105	78.4181131	3	20	3	;
	80	115	234.0347319	2	21	3	;
	81	106	50.50193156	10	22	3	;
	81	113	50.45822583	5	23	3	;
	81	103	48.98587646	2	24	3	;
	81	104	78.4181131	3	25	3	;
	82	102	100.0	5	26	3	;
	82	105	50.50193156	10	27	3	;
	82	107	139.1578842	3	28	3	;
	83	113	48.54917717000001	4	29	3	;
	83	114	49.93510694	8	30	3	;
	83	108	100.0	5	31	3	;
	83	106	139.1578842	3	32	3	;
	83	112	135.12001550000002	6	33	3	;
	84	101	49.0882673	6	34	3	;
	84	109	49.0882673	6	35	3	;
	84	111	48.76508287	4	36	3	;
	84	107	100.0	5	37	3	;
	85	100	234.0347319	4	38	3	;
	85	108	49.0882673	6	39	3	;
	85	110	259.00200639999997	3	40	3	;
	86	109	259.00200639999997	3	41	3	;
	86	120	50.91256152	4	42	3	;
	87	112	51.27526119	5	43	3	;
	87	108	48.76508287	4	44	3	;
	87	119	49.247906050000005	4	45	3	;
	88	107	135.12001550000002	6	46	3	;
	88	118	95.99180565	3	47	3	;
	88	116	145.6475315	3	48	3	;
	88	111	51.27526119	5	49	3	;
	89	107	48.54917717000001	4	50	3	;
	89	114	52.299100630000005	2	51	3	;
	89	115	196.79896710000003	3	52	3	;
	89	105	50.45822583	5	53	3	;
	90	113	52.299100630000005	2	54	3	;
	90	116	48.239508310000005	2	55	3	;
	90	107	49.93510694	8	56	3	;
	91	104	234.0347319	2	57	3	;
	91	113	196.79896710000003	3	58	3	;
	91	98	234.0347319	4	59	3	;
	92	98	50.026075629999994	4	60	3	;
	92	112	145.6475315	3	61	3	;
	92	114	48.239508310000005	2	62	3	;
	93	98	50.599123399999996	6	63	3	;
	93	118	52.299100630000005	2	64	3	;
	93	120	48.85357564	3	65	3	;
	94	112	95.99180565	3	66	3	;
	94	98	50.75697193	5	67	3	;
	94	117	52.299100630000005	2	68	3	;
	94	119	50.0	4	69	3	;
	95	111	49.247906050000005	4	70	3	;
	95	118	50.0	4	71	3	;
	95	120	50.78508436	2	72	3	;
	96	117	48.85357564	3	73	3	;
	96	110	50.91256152	4	74	3	;
	96	119	50.78508436	2	75	3	;
	97	123	259.00200639999997	6	0	4	;
	97	124	234.0347319	4	1	4	;
	98	141	50.599123399999996	6	2	4	;
	98	142	50.75697193	5	3	4	;
	98	140	50.026075629999994	4	4	4	;
	98	139	234.0347319	4	5	4	;
	99	121	259.00200639999997	6	6	4	;
	99	127	49.58180928	5	7	4	;
	100	133	234.0347319	4	8	4	;
	100	121	234.0347319	4	9	4	;
	100	125	171.1052372	4	10	4	;
	101	124	171.1052372	4	11	4	;
	101	126	177.82794099999998	2	12	4	;
	101	132	49.0882673	6	13	4	;
	102	125	177.82794099999998	2	14	4	;
	102	127	49.47995469000001	4	15	4	;
	102	130	100.0	5	16	4	;
	103	123	49.58180928	5	17	4	;
	103	126	49.47995469000001	4	18	4	;
	103	129	48.98587646	2	19	4	;
	104	129	78.4181131	3	20	4	;
	104	139	234.0347319	2	21	4	;
	105	130	50.50193156	10	22	4	;
	105	137	50.45822583	5	23	4	;
	105	127	48.98587646	2	24	4	;
	105	128	78.4181131	3	25	4	;
	106	126	100.0	5	26	4	;
	106	129	50.50193156	10	27	4	;
	106	131	139.1578842	3	28	4	;
	107	137	48.54917717000001	4	29	4	;
	107	138	49.93510694	8	30	4	;
	107	132	100.0	5	31	4	;
	107	130	139.1578842	3	32	4	;
	107	136	135.12001550000002	6	33	4	;
	108	125	49.0882673	6	34	4	;
	108	133	49.0882673	6	35	4	;
	108	135	48.76508287	4	36	4	;
	108	131	100.0	5	37	4	;
	109	124	234.0347319	4	38	4	;
	109	132	49.0882673	6	39	4	;
	109	134	259.00200639999997	3	40	4	;
	110	133	259.00200639999997	3	41	4	;
	110	144	50.91256152	4	42	4	;
	111	136	51.27526119	5	43	4	;
	111	132	48.76508287	4	44	4	;
	111	143	49.247906050000005	4	45	4	;
	112	131	135.12001550000002	6	46	4	;
	112	142	95.99180565	3	47	4	;
	112	140	145.6475315	3	48	4	;
	112	135	51.27526119	5	49	4	;
	113	131	48.54917717000001	4	50	4	;
	113	138	52.299100630000005	2	51	4	;
	113	139	196.79896710000003	3	52	4	;
	113	129	50.45822583	5	53	4	;
	114	137	52.299100630000005	2	54	4	;
	114	140	48.239508310000005	2	55	4	;
	114	131	49.93510694	8	56	4	;
	115	128	234.0347319	2	57	4	;
	115	137	196.79896710000003	3	58	4	;
	115	122	234.0347319	4	59	4	;
	116	122	50.026075629999994	4	60	4	;
	116	136	145.6475315	3	61	4	;
	116	138	48.239508310000005	2	62	4	;
	117	122	50.599123399999996	6	63	4	;
	117	142	52.299100630000005	2	64	4	;
	117	144	48.85357564	3	65	4	;
	118	136	95.99180565	3	66	4	;
	118	122	50.75697193	5	67	4	;
	118	141	52.299100630000005	2	68	4	;
	118	143	50.0	4	69	4	;
	119	135	49.247906050000005	4	70	4	;
	119	142	50.0	4	71	4	;
	119	144	50.78508436	2	72	4	;
	120	141	48.85357564	3	73	4	;
	120	134	50.91256152	4	74	4	;
	120	143	50.78508436	2	75	4	;
	121	147	259.00200639999997	6	0	5	;
	121	148	234.0347319	4	1	5	;
	122	165	50.599123399999996	6	2	5	;
	122	166	50.75697193	5	3	5	;
	122	164	50.026075629999994	4	4	5	;
	122	163	234.0347319	4	5	5	;
	123	145	259.00200639999997	6	6	5	;
	123	151	49.58180928	5	7	5	;
	124	157	234.0347319	4	8	5	;
	124	145	234.0347319	4	9	5	;
	124	149	171.1052372	4	10	5	;
	125	148	171.1052372	4	11	5	;
	125	150	177.82794099999998	2	12	5	;
	125	156	49.0882673	6	13	5	;
	126	149	177.82794099999998	2	14	5	;
	126	151	49.47995469000001	4	15	5	;
	126	154	100.0	5	16	5	;
	127	147	49.58180928	5	17	5	;
	127	150	49.47995469000001	4	18	5	;
	127	153	48.98587646	2	19	5	;
	128	153	78.4181131	3	20	5	;
	128	163	234.0347319	2	21	5	;
	129	154	50.50193156	10	22	5	;
	129	161	50.45822583	5	23	5	;
	129	151	48.98587646	2	24	5	;
	129	152	78.4181131	3	25	5	;
	130	150	100.0	5	26	5	;
	130	153	50.50193156	10	27	5	;
	130	155	139.1578842	3	28	5	;
	131	161	48.54917717000001	4	29	5	;
	131	162	49.93510694	8	30	5	;
	131	156	100.0	5	31	5	;
	131	154	139.1578842	3	32	5	;
	131	160	135.12001550000002	6	33	5	;
	132	149	49.0882673	6	34	5	;
	132	157	49.0882673	6	35	5	;
	132	159	48.76508287	4	36	5	;
	132	155	100.0	5	37	5	;
	133	148	234.0347319	4	38	5	;
	133	156	49.0882673	6	39	5	;
	133	158	259.00200639999997	3	40	5	;
	134	157	259.00200639999997	3	41	5	;
	134	168	50.91256152	4	42	5	;
	135	160	51.27526119	5	43	5	;
	135	156	48.76508287	4	44	5	;
	135	167	49.247906050000005	4	45	5	;
	136	155	135.12001550000002	6	46	5	;
	136	166	95.99180565	3	47	5	;
	136	164	145.6475315	3	48	5	;
	136	159	51.27526119	5	49	5	;
	137	155	48.54917717000001	4	50	5	;
	137	162	52.299100630000005	2	51	5	;
	137	163	196.79896710000003	3	52	5	;
	137	153	50.45822583	5	53	5	;
	138	161	52.299100630000005	2	54	5	;
	138	164	48.239508310000005	2	55	5	;
	138	155	49.93510694	8	56	5	;
	139	152	234.0347319	2	57	5	;
	139	161	196.79896710000003	3	58	5	;
	139	146	234.0347319	4	59	5	;
	140	146	50.026075629999994	4	60	5	;
	140	160	145.6475315	3	61	5	;
	140	162	48.239508310000005	2	62	5	;
	141	146	50.599123399999996	6	63	5	;
	141	166	52.299100630000005	2	64	5	;
	141	168	48.85357564	3	65	5	;
	142	160	95.99180565	3	66	5	;
	142	146	50.75697193	5	67	5	;
	142	165	52.299100630000005	2	68	5	;
	142	167	50.0	4	69	5	;
	143	159	49.247906050000005	4	70	5	;
	143	166	50.0	4	71	5	;
	143	168	50.78508436	2	72	5	;
	144	165	48.85357564	3	73	5	;
	144	158	50.91256152	4	74	5	;
	144	167	50.78508436	2	75	5	;
	145	171	259.00200639999997	6	0	6	;
	145	172	234.0347319	4	1	6	;
	146	189	50.599123399999996	6	2	6	;
	146	190	50.75697193	5	3	6	;
	146	188	50.026075629999994	4	4	6	;
	146	187	234.0347319	4	5	6	;
	147	169	259.00200639999997	6	6	6	;
	147	175	49.58180928	5	7	6	;
	148	181	234.0347319	4	8	6	;
	148	169	234.0347319	4	9	6	;
	148	173	171.1052372	4	10	6	;
	149	172	171.1052372	4	11	6	;
	149	174	177.82794099999998	2	12	6	;
	149	180	49.0882673	6	13	6	;
	150	173	177.82794099999998	2	14	6	;
	150	175	49.47995469000001	4	15	6	;
	150	178	100.0	5	16	6	;
	151	171	49.58180928	5	17	6	;
	151	174	49.47995469000001	4	18	6	;
	151	177	48.98587646	2	19	6	;
	152	177	78.4181131	3	20	6	;
	152	187	234.0347319	2	21	6	;
	153	178	50.50193156	10	22	6	;
	153	185	50.45822583	5	23	6	;
	153	175	48.98587646	2	24	6	;
	153	176	78.4181131	3	25	6	;
	154	174	100.0	5	26	6	;
	154	177	50.50193156	10	27	6	;
	154	179	139.1578842	3	28	6	;
	155	185	48.54917717000001	4	29	6	;
	155	186	49.93510694	8	30	6	;
	155	180	100.0	5	31	6	;
	155	178	139.1578842	3	32	6	;
	155	184	135.12001550000002	6	33	6	;
	156	173	49.0882673	6	34	6	;
	156	181	49.0882673	6	35	6	;
	156	183	48.76508287	4	36	6	;
	156	179	100.0	5	37	6	;
	157	172	234.0347319	4	38	6	;
	157	180	49.0882673	6	39	6	;
	157	182	259.00200639999997	3	40	6	;
	158	181	259.00200639999997	3	41	6	;
	158	192	50.91256152	4	42	6	;
	159	184	51.27526119	5	43	6	;
	159	180	48.76508287	4	44	6	;
	159	191	49.247906050000005	4	45	6	;
	160	179	135.12001550000002	6	46	6	;
	160	190	95.99180565	3	47	6	;
	160	188	145.6475315	3	48	6	;
	160	183	51.27526119	5	49	6	;
	161	179	48.54917717000001	4	50	6	;
	161	186	52.299100630000005	2	51	6	;
	161	187	196.79896710000003	3	52	6	;
	161	177	50.45822583	5	53	6	;
	162	185	52.299100630000005	2	54	6	;
	162	188	48.239508310000005	2	55	6	;
	162	179	49.93510694	8	56	6	;
	163	176	234.0347319	2	57	6	;
	163	185	196.79896710000003	3	58	6	;
	163	170	234.0347319	4	59	6	;
	164	170	50.026075629999994	4	60	6	;
	164	184	145.6475315	3	61	6	;
	164	186	48.239508310000005	2	62	6	;
	165	170	50.599123399999996	6	63	6	;
	165	190	52.299100630000005	2	64	6	;
	165	192	48.85357564	3	65	6	;
	166	184	95.99180565	3	66	6	;
	166	170	50.75697193	5	67	6	;
	166	189	52.299100630000005	2	68	6	;
	166	191	50.0	4	69	6	;
	167	183	49.247906050000005	4	70	6	;
	167	190	50.0	4	71	6	;
	167	192	50.78508436	2	72	6	;
	168	189	48.85357564	3	73	6	;
	168	182	50.91256152	4	74	6	;
	168	191	50.78508436	2	75	6	;
	169	195	259.00200639999997	6	0	7	;
	169	196	234.0347319	4	1	7	;
	170	213	50.599123399999996	6	2	7	;
	170	214	50.75697193	5	3	7	;
	170	212	50.026075629999994	4	4	7	;
	170	211	234.0347319	4	5	7	;
	171	193	259.00200639999997	6	6	7	;
	171	199	49.58180928	5	7	7	;
	172	205	234.0347319	4	8	7	;
	172	193	234.0347319	4	9	7	;
	172	197	171.1052372	4	10	7	;
	173	196	171.1052372	4	11	7	;
	173	198	177.82794099999998	2	12	7	;
	173	204	49.0882673	6	13	7	;
	174	197	177.82794099999998	2	14	7	;
	174	199	49.47995469000001	4	15	7	;
	174	202	100.0	5	16	7	;
	175	195	49.58180928	5	17	7	;
	175	198	49.47995469000001	4	18	7	;
	175	201	48.98587646	2	19	7	;
	176	201	78.4181131	3	20	7	;
	176	211	234.0347319	2	21	7	;
	177	202	50.50193156	10	22	7	;
	177	209	50.45822583	5	23	7	;
	177	199	48.98587646	2	24	7	;
	177	200	78.4181131	3	25	7	;
	178	198	100.0	5	26	7	;
	178	201	50.50193156	10	27	7	;
	178	203	139.1578842	3	28	7	;
	179	209	48.54917717000001	4	29	7	;
	179	210	49.93510694	8	30	7	;
	179	204	100.0	5	31	7	;
	179	202	139.1578842	3	32	7	;
	179	208	135.12001550000002	6	33	7	;
	180	197	49.0882673	6	34	7	;
	180	205	49.0882673	6	35	7	;
	180	207	48.76508287	4	36	7	;
	180	203	100.0	5	37	7	;
	181	196	234.0347319	4	38	7	;
	181	204	49.0882673	6	39	7	;
	181	206	259.00200639999997	3	40	7	;
	182	205	259.00200639999997	3	41	7	;
	182	216	50.91256152	4	42	7	;
	183	208	51.27526119	5	43	7	;
	183	204	48.76508287	4	44	7	;
	183	215	49.247906050000005	4	45	7	;
	184	203	135.12001550000002	6	46	7	;
	184	214	95.99180565	3	47	7	;
	184	212	145.6475315	3	48	7	;
	184	207	51.27526119	5	49	7	;
	185	203	48.54917717000001	4	50	7	;
	185	210	52.299100630000005	2	51	7	;
	185	211	196.79896710000003	3	52	7	;
	185	201	50.45822583	5	53	7	;
	186	209	52.299100630000005	2	54	7	;
	186	212	48.239508310000005	2	55	7	;
	186	203	49.93510694	8	56	7	;
	187	200	234.0347319	2	57	7	;
	187	209	196.79896710000003	3	58	7	;
	187	194	234.0347319	4	59	7	;
	188	194	50.026075629999994	4	60	7	;
	188	208	145.6475315	3	61	7	;
	188	210	48.239508310000005	2	62	7	;
	189	194	50.599123399999996	6	63	7	;
	189	214	52.299100630000005	2	64	7	;
	189	216	48.85357564	3	65	7	;
	190	208	95.99180565	3	66	7	;
	190	194	50.75697193	5	67	7	;
	190	213	52.299100630000005	2	68	7	;
	190	215	50.0	4	69	7	;
	191	207	49.247906050000005	4	70	7	;
	191	214	50.0	4	71	7	;
	191	216	50.78508436	2	72	7	;
	192	213	48.85357564	3	73	7	;
	192	206	50.91256152	4	74	7	;
	192	215	50.78508436	2	75	7	;
	193	219	259.00200639999997	6	0	8	;
	193	220	234.0347319	4	1	8	;
	194	237	50.599123399999996	6	2	8	;
	194	238	50.75697193	5	3	8	;
	194	236	50.026075629999994	4	4	8	;
	194	235	234.0347319	4	5	8	;
	195	217	259.00200639999997	6	6	8	;
	195	223	49.58180928	5	7	8	;
	196	229	234.0347319	4	8	8	;
	196	217	234.0347319	4	9	8	;
	196	221	171.1052372	4	10	8	;
	197	220	171.1052372	4	11	8	;
	197	222	177.82794099999998	2	12	8	;
	197	228	49.0882673	6	13	8	;
	198	221	177.82794099999998	2	14	8	;
	198	223	49.47995469000001	4	15	8	;
	198	226	100.0	5	16	8	;
	199	219	49.58180928	5	17	8	;
	199	222	49.47995469000001	4	18	8	;
	199	225	48.98587646	2	19	8	;
	200	225	78.4181131	3	20	8	;
	200	235	234.0347319	2	21	8	;
	201	226	50.50193156	10	22	8	;
	201	233	50.45822583	5	23	8	;
	201	223	48.98587646	2	24	8	;
	201	224	78.4181131	3	25	8	;
	202	222	100.0	5	26	8	;
	202	225	50.50193156	10	27	8	;
	202	227	139.1578842	3	28	8	;
	203	233	48.54917717000001	4	29	8	;
	203	234	49.93510694	8	30	8	;
	203	228	100.0	5	31	8	;
	203	226	139.1578842	3	32	8	;
	203	232	135.12001550000002	6	33	8	;
	204	221	49.0882673	6	34	8	;
	204	229	49.0882673	6	35	8	;
	204	231	48.76508287	4	36	8	;
	204	227	100.0	5	37	8	;
	205	220	234.0347319	4	38	8	;
	205	228	49.0882673	6	39	8	;
	205	230	259.00200639999997	3	40	8	;
	206	229	259.00200639999997	3	41	8	;
	206	240	50.91256152	4	42	8	;
	207	232	51.27526119	5	43	8	;
	207	228	48.76508287	4	44	8	;
	207	239	49.247906050000005	4	45	8	;
	208	227	135.12001550000002	6	46	8	;
	208	238	95.99180565	3	47	8	;
	208	236	145.6475315	3	48	8	;
	208	231	51.27526119	5	49	8	;
	209	227	48.54917717000001	4	50	8	;
	209	234	52.299100630000005	2	51	8	;
	209	235	196.79896710000003	3	52	8	;
	209	225	50.45822583	5	53	8	;
	210	233	52.299100630000005	2	54	8	;
	210	236	48.239508310000005	2	55	8	;
	210	227	49.93510694	8	56	8	;
	211	224	234.0347319	2	57	8	;
	211	233	196.79896710000003	3	58	8	;
	211	218	234.0347319	4	59	8	;
	212	218	50.026075629999994	4	60	8	;
	212	232	145.6475315	3	61	8	;
	212	234	48.239508310000005	2	62	8	;
	213	218	50.599123399999996	6	63	8	;
	213	238	52.299100630000005	2	64	8	;
	213	240	48.85357564	3	65	8	;
	214	232	95.99180565	3	66	8	;
	214	218	50.75697193	5	67	8	;
	214	237	52.299100630000005	2	68	8	;
	214	239	50.0	4	69	8	;
	215	231	49.247906050000005	4	70	8	;
	215	238	50.0	4	71	8	;
	215	240	50.78508436	2	72	8	;
	216	237	48.85357564	3	73	8	;
	216	230	50.91256152	4	74	8	;
	216	239	50.78508436	2	75	8	;
	217	243	259.00200639999997	6	0	9	;
	217	244	234.0347319	4	1	9	;
	218	261	50.599123399999996	6	2	9	;
	218	262	50.75697193	5	3	9	;
	218	260	50.026075629999994	4	4	9	;
	218	259	234.0347319	4	5	9	;
	219	241	259.00200639999997	6	6	9	;
	219	247	49.58180928	5	7	9	;
	220	253	234.0347319	4	8	9	;
	220	241	234.0347319	4	9	9	;
	220	245	171.1052372	4	10	9	;
	221	244	171.1052372	4	11	9	;
	221	246	177.82794099999998	2	12	9	;
	221	252	49.0882673	6	13	9	;
	222	245	177.82794099999998	2	14	9	;
	222	247	49.47995469000001	4	15	9	;
	222	250	100.0	5	16	9	;
	223	243	49.58180928	5	17	9	;
	223	246	49.47995469000001	4	18	9	;
	223	249	48.98587646	2	19	9	;
	224	249	78.4181131	3	20	9	;
	224	259	234.0347319	2	21	9	;
	225	250	50.50193156	10	22	9	;
	225	257	50.45822583	5	23	9	;
	225	247	48.98587646	2	24	9	;
	225	248	78.4181131	3	25	9	;
	226	246	100.0	5	26	9	;
	226	249	50.50193156	10	27	9	;
	226	251	139.1578842	3	28	9	;
	227	257	48.54917717000001	4	29	9	;
	227	258	49.93510694	8	30	9	;
	227	252	100.0	5	31	9	;
	227	250	139.1578842	3	32	9	;
	227	256	135.12001550000002	6	33	9	;
	228	245	49.0882673	6	34	9	;
	228	253	49.0882673	6	35	9	;
	228	255	48.76508287	4	36	9	;
	228	251	100.0	5	37	9	;
	229	244	234.0347319	4	38	9	;
	229	252	49.0882673	6	39	9	;
	229	254	259.00200639999997	3	40	9	;
	230	253	259.00200639999997	3	41	9	;
	230	264	50.91256152	4	42	9	;
	231	256	51.27526119	5	43	9	;
	231	252	48.76508287	4	44	9	;
	231	263	49.247906050000005	4	45	9	;
	232	251	135.12001550000002	6	46	9	;
	232	262	95.99180565	3	47	9	;
	232	260	145.6475315	3	48	9	;
	232	255	51.27526119	5	49	9	;
	233	251	48.54917717000001	4	50	9	;
	233	258	52.299100630000005	2	51	9	;
	233	259	196.79896710000003	3	52	9	;
	233	249	50.45822583	5	53	9	;
	234	257	52.299100630000005	2	54	9	;
	234	260	48.239508310000005	2	55	9	;
	234	251	49.93510694	8	56	9	;
	235	248	234.0347319	2	57	9	;
	235	257	196.79896710000003	3	58	9	;
	235	242	234.0347319	4	59	9	;
	236	242	50.026075629999994	4	60	9	;
	236	256	145.6475315	3	61	9	;
	236	258	48.239508310000005	2	62	9	;
	237	242	50.599123399999996	6	63	9	;
	237	262	52.299100630000005	2	64	9	;
	237	264	48.85357564	3	65	9	;
	238	256	95.99180565	3	66	9	;
	238	242	50.75697193	5	67	9	;
	238	261	52.299100630000005	2	68	9	;
	238	263	50.0	4	69	9	;
	239	255	49.247906050000005	4	70	9	;
	239	262	50.0	4	71	9	;
	239	264	50.78508436	2	72	9	;
	240	261	48.85357564	3	73	9	;
	240	254	50.91256152	4	74	9	;
	240	263	50.78508436	2	75	9	;
	241	267	259.00200639999997	6	0	10	;
	241	268	234.0347319	4	1	10	;
	242	285	50.599123399999996	6	2	10	;
	242	286	50.75697193	5	3	10	;
	242	284	50.026075629999994	4	4	10	;
	242	283	234.0347319	4	5	10	;
	243	265	259.00200639999997	6	6	10	;
	243	271	49.58180928	5	7	10	;
	244	277	234.0347319	4	8	10	;
	244	265	234.0347319	4	9	10	;
	244	269	171.1052372	4	10	10	;
	245	268	171.1052372	4	11	10	;
	245	270	177.82794099999998	2	12	10	;
	245	276	49.0882673	6	13	10	;
	246	269	177.82794099999998	2	14	10	;
	246	271	49.47995469000001	4	15	10	;
	246	274	100.0	5	16	10	;
	247	267	49.58180928	5	17	10	;
	247	270	49.47995469000001	4	18	10	;
	247	273	48.98587646	2	19	10	;
	248	273	78.4181131	3	20	10	;
	248	283	234.0347319	2	21	10	;
	249	274	50.50193156	10	22	10	;
	249	281	50.45822583	5	23	10	;
	249	271	48.98587646	2	24	10	;
	249	272	78.4181131	3	25	10	;
	250	270	100.0	5	26	10	;
	250	273	50.50193156	10	27	10	;
	250	275	139.1578842	3	28	10	;
	251	281	48.54917717000001	4	29	10	;
	251	282	49.93510694	8	30	10	;
	251	276	100.0	5	31	10	;
	251	274	139.1578842	3	32	10	;
	251	280	135.12001550000002	6	33	10	;
	252	269	49.0882673	6	34	10	;
	252	277	49.0882673	6	35	10	;
	252	279	48.76508287	4	36	10	;
	252	275	100.0	5	37	10	;
	253	268	234.0347319	4	38	10	;
	253	276	49.0882673	6	39	10	;
	253	278	259.00200639999997	3	40	10	;
	254	277	259.00200639999997	3	41	10	;
	254	288	50.91256152	4	42	10	;
	255	280	51.27526119	5	43	10	;
	255	276	48.76508287	4	44	10	;
	255	287	49.247906050000005	4	45	10	;
	256	275	135.12001550000002	6	46	10	;
	256	286	95.99180565	3	47	10	;
	256	284	145.6475315	3	48	10	;
	256	279	51.27526119	5	49	10	;
	257	275	48.54917717000001	4	50	10	;
	257	282	52.299100630000005	2	51	10	;
	257	283	196.79896710000003	3	52	10	;
	257	273	50.45822583	5	53	10	;
	258	281	52.299100630000005	2	54	10	;
	258	284	48.239508310000005	2	55	10	;
	258	275	49.93510694	8	56	10	;
	259	272	234.0347319	2	57	10	;
	259	281	196.79896710000003	3	58	10	;
	259	266	234.0347319	4	59	10	;
	260	266	50.026075629999994	4	60	10	;
	260	280	145.6475315	3	61	10	;
	260	282	48.239508310000005	2	62	10	;
	261	266	50.599123399999996	6	63	10	;
	261	286	52.299100630000005	2	64	10	;
	261	288	48.85357564	3	65	10	;
	262	280	95.99180565	3	66	10	;
	262	266	50.75697193	5	67	10	;
	262	285	52.299100630000005	2	68	10	;
	262	287	50.0	4	69	10	;
	263	279	49.247906050000005	4	70	10	;
	263	286	50.0	4	71	10	;
	263	288	50.78508436	2	72	10	;
	264	285	48.85357564	3	73	10	;
	264	278	50.91256152	4	74	10	;
	264	287	50.78508436	2	75	10	;
	265	291	259.00200639999997	6	0	11	;
	265	292	234.0347319	4	1	11	;
	266	309	50.599123399999996	6	2	11	;
	266	310	50.75697193	5	3	11	;
	266	308	50.026075629999994	4	4	11	;
	266	307	234.0347319	4	5	11	;
	267	289	259.00200639999997	6	6	11	;
	267	295	49.58180928	5	7	11	;
	268	301	234.0347319	4	8	11	;
	268	289	234.0347319	4	9	11	;
	268	293	171.1052372	4	10	11	;
	269	292	171.1052372	4	11	11	;
	269	294	177.82794099999998	2	12	11	;
	269	300	49.0882673	6	13	11	;
	270	293	177.82794099999998	2	14	11	;
	270	295	49.47995469000001	4	15	11	;
	270	298	100.0	5	16	11	;
	271	291	49.58180928	5	17	11	;
	271	294	49.47995469000001	4	18	11	;
	271	297	48.98587646	2	19	11	;
	272	297	78.4181131	3	20	11	;
	272	307	234.0347319	2	21	11	;
	273	298	50.50193156	10	22	11	;
	273	305	50.45822583	5	23	11	;
	273	295	48.98587646	2	24	11	;
	273	296	78.4181131	3	25	11	;
	274	294	100.0	5	26	11	;
	274	297	50.50193156	10	27	11	;
	274	299	139.1578842	3	28	11	;
	275	305	48.54917717000001	4	29	11	;
	275	306	49.93510694	8	30	11	;
	275	300	100.0	5	31	11	;
	275	298	139.1578842	3	32	11	;
	275	304	135.12001550000002	6	33	11	;
	276	293	49.0882673	6	34	11	;
	276	301	49.0882673	6	35	11	;
	276	303	48.76508287	4	36	11	;
	276	299	100.0	5	37	11	;
	277	292	234.0347319	4	38	11	;
	277	300	49.0882673	6	39	11	;
	277	302	259.00200639999997	3	40	11	;
	278	301	259.00200639999997	3	41	11	;
	278	312	50.91256152	4	42	11	;
	279	304	51.27526119	5	43	11	;
	279	300	48.76508287	4	44	11	;
	279	311	49.247906050000005	4	45	11	;
	280	299	135.12001550000002	6	46	11	;
	280	310	95.99180565	3	47	11	;
	280	308	145.6475315	3	48	11	;
	280	303	51.27526119	5	49	11	;
	281	299	48.54917717000001	4	50	11	;
	281	306	52.299100630000005	2	51	11	;
	281	307	196.79896710000003	3	52	11	;
	281	297	50.45822583	5	53	11	;
	282	305	52.299100630000005	2	54	11	;
	282	308	48.239508310000005	2	55	11	;
	282	299	49.93510694	8	56	11	;
	283	296	234.0347319	2	57	11	;
	283	305	196.79896710000003	3	58	11	;
	283	290	234.0347319	4	59	11	;
	284	290	50.026075629999994	4	60	11	;
	284	304	145.6475315	3	61	11	;
	284	306	48.239508310000005	2	62	11	;
	285	290	50.599123399999996	6	63	11	;
	285	310	52.299100630000005	2	64	11	;
	285	312	48.85357564	3	65	11	;
	286	304	95.99180565	3	66	11	;
	286	290	50.75697193	5	67	11	;
	286	309	52.299100630000005	2	68	11	;
	286	311	50.0	4	69	11	;
	287	303	49.247906050000005	4	70	11	;
	287	310	50.0	4	71	11	;
	287	312	50.78508436	2	72	11	;
	288	309	48.85357564	3	73	11	;
	288	302	50.91256152	4	74	11	;
	288	311	50.78508436	2	75	11	;
	289	315	259.00200639999997	6	0	12	;
	289	316	234.0347319	4	1	12	;
	290	333	50.599123399999996	6	2	12	;
	290	334	50.75697193	5	3	12	;
	290	332	50.026075629999994	4	4	12	;
	290	331	234.0347319	4	5	12	;
	291	313	259.00200639999997	6	6	12	;
	291	319	49.58180928	5	7	12	;
	292	325	234.0347319	4	8	12	;
	292	313	234.0347319	4	9	12	;
	292	317	171.1052372	4	10	12	;
	293	316	171.1052372	4	11	12	;
	293	318	177.82794099999998	2	12	12	;
	293	324	49.0882673	6	13	12	;
	294	317	177.82794099999998	2	14	12	;
	294	319	49.47995469000001	4	15	12	;
	294	322	100.0	5	16	12	;
	295	315	49.58180928	5	17	12	;
	295	318	49.47995469000001	4	18	12	;
	295	321	48.98587646	2	19	12	;
	296	321	78.4181131	3	20	12	;
	296	331	234.0347319	2	21	12	;
	297	322	50.50193156	10	22	12	;
	297	329	50.45822583	5	23	12	;
	297	319	48.98587646	2	24	12	;
	297	320	78.4181131	3	25	12	;
	298	318	100.0	5	26	12	;
	298	321	50.50193156	10	27	12	;
	298	323	139.1578842	3	28	12	;
	299	329	48.54917717000001	4	29	12	;
	299	330	49.93510694	8	30	12	;
	299	324	100.0	5	31	12	;
	299	322	139.1578842	3	32	12	;
	299	328	135.12001550000002	6	33	12	;
	300	317	49.0882673	6	34	12	;
	300	325	49.0882673	6	35	12	;
	300	327	48.76508287	4	36	12	;
	300	323	100.0	5	37	12	;
	301	316	234.0347319	4	38	12	;
	301	324	49.0882673	6	39	12	;
	301	326	259.00200639999997	3	40	12	;
	302	325	259.00200639999997	3	41	12	;