<NUMBER OF ZONES> 8
<TOTAL OD FLOW> 1000.0
<END OF METADATA>



Origin  1
	5 :	114.21625009144877;	6 :	87.67061306887474;	7 :	34.893741899895154;	8 :	82.67199415064842;

Origin  2
	5 :	108.45135800904067;	6 :	92.94387987735237;	7 :	20.246466033434864;	8 :	36.677194368785635;

Origin  3
	5 :	47.90736633179596;	6 :	50.87049814294353;	7 :	3.3489609444635304;	8 :	50.50102221538019;

Origin  4
	5 :	2.6802027596504256;	6 :	94.60748342054603;	7 :	73.32169120907479;	8 :	98.99127747666488;