<NUMBER OF ZONES> 8
<NUMBER OF NODES> 64
<FIRST THRU NODE> 1
<NUMBER OF LINKS> 240
<ORIGINAL HEADER> 
<END OF METADATA>


~	init_node	term_node	free_flow_time	original_link	time	original_TS_link	user_state	link_type	price_index	;
	9	14	5.5	0	0	0	0	1	0	;
	9	15	7.0	1	0	1	0	1	0	;
	10	15	5.0	2	0	2	0	1	0	;
	10	16	9.0	3	0	3	0	1	0	;
	11	16	7.5	4	0	4	0	1	0	;
	10	13	5.5	5	0	5	0	1	0	;
	11	13	7.0	6	0	6	0	1	0	;
	11	14	5.0	7	0	7	0	1	0	;
	12	14	9.0	8	0	8	0	1	0	;
	12	15	7.5	9	0	9	0	1	0	;
	13	18	5.5	0	1	10	0	1	0	;
	13	19	7.0	1	1	11	0	1	0	;
	14	19	5.0	2	1	12	0	1	0	;
	14	20	9.0	3	1	13	0	1	0	;
	15	20	7.5	4	1	14	0	1	0	;
	14	17	5.5	5	1	15	0	1	0	;
	15	17	7.0	6	1	16	0	1	0	;
	15	18	5.0	7	1	17	0	1	0	;
	16	18	9.0	8	1	18	0	1	0	;
	16	19	7.5	9	1	19	0	1	0	;
	17	22	5.5	0	2	20	0	1	0	;
	17	23	7.0	1	2	21	0	1	0	;
	18	23	5.0	2	2	22	0	1	0	;
	18	24	9.0	3	2	23	0	1	0	;
	19	24	7.5	4	2	24	0	1	0	;
	18	21	5.5	5	2	25	0	1	0	;
	19	21	7.0	6	2	26	0	1	0	;
	19	22	5.0	7	2	27	0	1	0	;
	20	22	9.0	8	2	28	0	1	0	;
	20	23	7.5	9	2	29	0	1	0	;
	21	26	5.5	0	3	30	0	1	0	;
	21	27	7.0	1	3	31	0	1	0	;
	22	27	5.0	2	3	32	0	1	0	;
	22	28	9.0	3	3	33	0	1	0	;
	23	28	7.5	4	3	34	0	1	0	;
	22	25	5.5	5	3	35	0	1	0	;
	23	25	7.0	6	3	36	0	1	0	;
	23	26	5.0	7	3	37	0	1	0	;
	24	26	9.0	8	3	38	0	1	0	;
	24	27	7.5	9	3	39	0	1	0	;
	25	30	5.5	0	4	40	0	1	0	;
	25	31	7.0	1	4	41	0	1	0	;
	26	31	5.0	2	4	42	0	1	0	;
	26	32	9.0	3	4	43	0	1	0	;
	27	32	7.5	4	4	44	0	1	0	;
	26	29	5.5	5	4	45	0	1	0	;
	27	29	7.0	6	4	46	0	1	0	;
	27	30	5.0	7	4	47	0	1	0	;
	28	30	9.0	8	4	48	0	1	0	;
	28	31	7.5	9	4	49	0	1	0	;
	29	34	5.5	0	5	50	0	1	0	;
	29	35	7.0	1	5	51	0	1	0	;
	30	35	5.0	2	5	52	0	1	0	;
	30	36	9.0	3	5	53	0	1	0	;
	31	36	7.5	4	5	54	0	1	0	;
	30	33	5.5	5	5	55	0	1	0	;
	31	33	7.0	6	5	56	0	1	0	;
	31	34	5.0	7	5	57	0	1	0	;
	32	34	9.0	8	5	58	0	1	0	;
	32	35	7.5	9	5	59	0	1	0	;
	37	42	1.5	0	0	0	1	1	1	;
	37	43	3.0	1	0	1	1	1	1	;
	38	43	1.0	2	0	2	1	1	1	;
	38	44	5.0	3	0	3	1	1	1	;
	39	44	3.5	4	0	4	1	1	1	;
	38	41	1.5	5	0	5	1	1	1	;
	39	41	3.0	6	0	6	1	1	1	;
	39	42	1.0	7	0	7	1	1	1	;
	40	42	5.0	8	0	8	1	1	1	;
	40	43	3.5	9	0	9	1	1	1	;
	41	46	1.5	0	1	10	1	1	1	;
	41	47	3.0	1	1	11	1	1	1	;
	42	47	1.0	2	1	12	1	1	1	;
	42	48	5.0	3	1	13	1	1	1	;
	43	48	3.5	4	1	14	1	1	1	;
	42	45	1.5	5	1	15	1	1	1	;
	43	45	3.0	6	1	16	1	1	1	;
	43	46	1.0	7	1	17	1	1	1	;
	44	46	5.0	8	1	18	1	1	1	;
	44	47	3.5	9	1	19	1	1	1	;
	45	50	1.5	0	2	20	1	1	1	;
	45	51	3.0	1	2	21	1	1	1	;
	46	51	1.0	2	2	22	1	1	1	;
	46	52	5.0	3	2	23	1	1	1	;
	47	52	3.5	4	2	24	1	1	1	;
	46	49	1.5	5	2	25	1	1	1	;
	47	49	3.0	6	2	26	1	1	1	;
	47	50	1.0	7	2	27	1	1	1	;
	48	50	5.0	8	2	28	1	1	1	;
	48	51	3.5	9	2	29	1	1	1	;
	49	54	1.5	0	3	30	1	1	1	;
	49	55	3.0	1	3	31	1	1	1	;
	50	55	1.0	2	3	32	1	1	1	;
	50	56	5.0	3	3	33	1	1	1	;
	51	56	3.5	4	3	34	1	1	1	;
	50	53	1.5	5	3	35	1	1	1	;
	51	53	3.0	6	3	36	1	1	1	;
	51	54	1.0	7	3	37	1	1	1	;
	52	54	5.0	8	3	38	1	1	1	;
	52	55	3.5	9	3	39	1	1	1	;
	53	58	1.5	0	4	40	1	1	1	;
	53	59	3.0	1	4	41	1	1	1	;
	54	59	1.0	2	4	42	1	1	1	;
	54	60	5.0	3	4	43	1	1	1	;
	55	60	3.5	4	4	44	1	1	1	;
	54	57	1.5	5	4	45	1	1	1	;
	55	57	3.0	6	4	46	1	1	1	;
	55	58	1.0	7	4	47	1	1	1	;
	56	58	5.0	8	4	48	1	1	1	;
	56	59	3.5	9	4	49	1	1	1	;
	57	62	1.5	0	5	50	1	1	1	;
	57	63	3.0	1	5	51	1	1	1	;
	58	63	1.0	2	5	52	1	1	1	;
	58	64	5.0	3	5	53	1	1	1	;
	59	64	3.5	4	5	54	1	1	1	;
	58	61	1.5	5	5	55	1	1	1	;
	59	61	3.0	6	5	56	1	1	1	;
	59	62	1.0	7	5	57	1	1	1	;
	60	62	5.0	8	5	58	1	1	1	;
	60	63	3.5	9	5	59	1	1	1	;
	1	5	50.0	-1	-1	-1	-1	-1	0	;
	1	6	50.0	-1	-1	-1	-1	-1	0	;
	1	7	50.0	-1	-1	-1	-1	-1	0	;
	1	8	50.0	-1	-1	-1	-1	-1	0	;
	2	5	50.0	-1	-1	-1	-1	-1	0	;
	2	6	50.0	-1	-1	-1	-1	-1	0	;
	2	7	50.0	-1	-1	-1	-1	-1	0	;
	2	8	50.0	-1	-1	-1	-1	-1	0	;
	3	5	50.0	-1	-1	-1	-1	-1	0	;
	3	6	50.0	-1	-1	-1	-1	-1	0	;
	3	7	50.0	-1	-1	-1	-1	-1	0	;
	3	8	50.0	-1	-1	-1	-1	-1	0	;
	4	5	50.0	-1	-1	-1	-1	-1	0	;
	4	6	50.0	-1	-1	-1	-1	-1	0	;
	4	7	50.0	-1	-1	-1	-1	-1	0	;
	4	8	50.0	-1	-1	-1	-1	-1	0	;
	1	9	1.0	-1	0	-1	0	-1	0	;
	2	10	1.0	-1	0	-1	0	-1	0	;
	3	11	1.0	-1	0	-1	0	-1	0	;
	4	12	1.0	-1	0	-1	0	-1	0	;
	1	13	1.0	-1	1	-1	0	-1	0	;
	2	14	1.0	-1	1	-1	0	-1	0	;
	3	15	1.0	-1	1	-1	0	-1	0	;
	4	16	1.0	-1	1	-1	0	-1	0	;
	1	17	1.0	-1	2	-1	0	-1	0	;
	2	18	1.0	-1	2	-1	0	-1	0	;
	3	19	1.0	-1	2	-1	0	-1	0	;
	4	20	1.0	-1	2	-1	0	-1	0	;
	1	21	1.0	-1	3	-1	0	-1	0	;
	2	22	1.0	-1	3	-1	0	-1	0	;
	3	23	1.0	-1	3	-1	0	-1	0	;
	4	24	1.0	-1	3	-1	0	-1	0	;
	1	25	1.0	-1	4	-1	0	-1	0	;
	2	26	1.0	-1	4	-1	0	-1	0	;
	3	27	1.0	-1	4	-1	0	-1	0	;
	4	28	1.0	-1	4	-1	0	-1	0	;
	1	29	1.0	-1	5	-1	0	-1	0	;
	2	30	1.0	-1	5	-1	0	-1	0	;
	3	31	1.0	-1	5	-1	0	-1	0	;
	4	32	1.0	-1	5	-1	0	-1	0	;
	1	33	1.0	-1	6	-1	0	-1	0	;
	2	34	1.0	-1	6	-1	0	-1	0	;
	3	35	1.0	-1	6	-1	0	-1	0	;
	4	36	1.0	-1	6	-1	0	-1	0	;
	9	5	2.0	-1	0	-1	0	-1	0	;
	10	6	2.0	-1	0	-1	0	-1	0	;
	11	7	2.0	-1	0	-1	0	-1	0	;
	12	8	2.0	-1	0	-1	0	-1	0	;
	13	5	1.5	-1	1	-1	0	-1	0	;
	14	6	1.5	-1	1	-1	0	-1	0	;
	15	7	1.5	-1	1	-1	0	-1	0	;
	16	8	1.5	-1	1	-1	0	-1	0	;
	17	5	1.0	-1	2	-1	0	-1	0	;
	18	6	1.0	-1	2	-1	0	-1	0	;
	19	7	1.0	-1	2	-1	0	-1	0	;
	20	8	1.0	-1	2	-1	0	-1	0	;
	21	5	0.5	-1	3	-1	0	-1	0	;
	22	6	0.5	-1	3	-1	0	-1	0	;
	23	7	0.5	-1	3	-1	0	-1	0	;
	24	8	0.5	-1	3	-1	0	-1	0	;
	25	5	0.0	-1	4	-1	0	-1	0	;
	26	6	0.0	-1	4	-1	0	-1	0	;
	27	7	0.0	-1	4	-1	0	-1	0	;
	28	8	0.0	-1	4	-1	0	-1	0	;
	29	5	1.0	-1	5	-1	0	-1	0	;
	30	6	1.0	-1	5	-1	0	-1	0	;
	31	7	1.0	-1	5	-1	0	-1	0	;
	32	8	1.0	-1	5	-1	0	-1	0	;
	33	5	2.0	-1	6	-1	0	-1	0	;
	34	6	2.0	-1	6	-1	0	-1	0	;
	35	7	2.0	-1	6	-1	0	-1	0	;
	36	8	2.0	-1	6	-1	0	-1	0	;
	9	41	1.0	-1	0	-1	-1	2	1	;
	10	42	1.0	-1	0	-1	-1	2	1	;
	11	43	1.0	-1	0	-1	-1	2	1	;
	12	44	1.0	-1	0	-1	-1	2	1	;
	13	45	1.0	-1	1	-1	-1	2	1	;
	14	46	1.0	-1	1	-1	-1	2	1	;
	15	47	1.0	-1	1	-1	-1	2	1	;
	16	48	1.0	-1	1	-1	-1	2	1	;
	17	49	1.0	-1	2	-1	-1	2	1	;
	18	50	1.0	-1	2	-1	-1	2	1	;
	19	51	1.0	-1	2	-1	-1	2	1	;
	20	52	1.0	-1	2	-1	-1	2	1	;
	21	53	1.0	-1	3	-1	-1	2	1	;
	22	54	1.0	-1	3	-1	-1	2	1	;
	23	55	1.0	-1	3	-1	-1	2	1	;
	24	56	1.0	-1	3	-1	-1	2	1	;
	25	57	1.0	-1	4	-1	-1	2	1	;
	26	58	1.0	-1	4	-1	-1	2	1	;
	27	59	1.0	-1	4	-1	-1	2	1	;
	28	60	1.0	-1	4	-1	-1	2	1	;
	29	61	1.0	-1	5	-1	-1	2	1	;
	30	62	1.0	-1	5	-1	-1	2	1	;
	31	63	1.0	-1	5	-1	-1	2	1	;
	32	64	1.0	-1	5	-1	-1	2	1	;
	37	13	1.0	-1	0	-1	-1	3	1	;
	38	14	1.0	-1	0	-1	-1	3	1	;
	39	15	1.0	-1	0	-1	-1	3	1	;
	40	16	1.0	-1	0	-1	-1	3	1	;
	41	17	1.0	-1	1	-1	-1	3	1	;
	42	18	1.0	-1	1	-1	-1	3	1	;
	43	19	1.0	-1	1	-1	-1	3	1	;
	44	20	1.0	-1	1	-1	-1	3	1	;
	45	21	1.0	-1	2	-1	-1	3	1	;
	46	22	1.0	-1	2	-1	-1	3	1	;
	47	23	1.0	-1	2	-1	-1	3	1	;
	48	24	1.0	-1	2	-1	-1	3	1	;
	49	25	1.0	-1	3	-1	-1	3	1	;
	50	26	1.0	-1	3	-1	-1	3	1	;
	51	27	1.0	-1	3	-1	-1	3	1	;
	52	28	1.0	-1	3	-1	-1	3	1	;
	53	29	1.0	-1	4	-1	-1	3	1	;
	54	30	1.0	-1	4	-1	-1	3	1	;
	55	31	1.0	-1	4	-1	-1	3	1	;
	56	32	1.0	-1	4	-1	-1	3	1	;
	57	33	1.0	-1	5	-1	-1	3	1	;
	58	34	1.0	-1	5	-1	-1	3	1	;
	59	35	1.0	-1	5	-1	-1	3	1	;
	60	36	1.0	-1	5	-1	-1	3	1	;