<NUMBER OF ZONES> 72
<NUMBER OF NODES> 1512
<FIRST THRU NODE> 1
<NUMBER OF LINKS> 6384
<ORIGINAL HEADER> 
<END OF METADATA>


~	init_node	term_node	free_flow_time	original_link	time	original_TS_link	vehicle_state	link_type	price_index	;
	73	110	5.0	0	0	0	0	1	0	;
	73	115	5.0	1	0	1	0	1	0	;
	74	111	5.0	2	0	2	0	1	0	;
	74	116	5.0	3	0	3	0	1	0	;
	75	112	5.0	4	0	4	0	1	0	;
	75	117	5.0	5	0	5	0	1	0	;
	76	113	5.0	6	0	6	0	1	0	;
	76	118	5.0	7	0	7	0	1	0	;
	77	114	5.0	8	0	8	0	1	0	;
	77	119	5.0	9	0	9	0	1	0	;
	78	120	5.0	10	0	10	0	1	0	;
	79	116	5.0	11	0	11	0	1	0	;
	79	121	5.0	12	0	12	0	1	0	;
	80	117	5.0	13	0	13	0	1	0	;
	80	122	5.0	14	0	14	0	1	0	;
	81	118	5.0	15	0	15	0	1	0	;
	81	123	5.0	16	0	16	0	1	0	;
	82	119	5.0	17	0	17	0	1	0	;
	82	124	5.0	18	0	18	0	1	0	;
	83	120	5.0	19	0	19	0	1	0	;
	83	125	5.0	20	0	20	0	1	0	;
	84	126	5.0	21	0	21	0	1	0	;
	85	122	5.0	22	0	22	0	1	0	;
	85	127	5.0	23	0	23	0	1	0	;
	86	123	5.0	24	0	24	0	1	0	;
	86	128	5.0	25	0	25	0	1	0	;
	87	124	5.0	26	0	26	0	1	0	;
	87	129	5.0	27	0	27	0	1	0	;
	88	125	5.0	28	0	28	0	1	0	;
	88	130	5.0	29	0	29	0	1	0	;
	89	126	5.0	30	0	30	0	1	0	;
	89	131	5.0	31	0	31	0	1	0	;
	90	132	5.0	32	0	32	0	1	0	;
	91	128	5.0	33	0	33	0	1	0	;
	91	133	5.0	34	0	34	0	1	0	;
	92	129	5.0	35	0	35	0	1	0	;
	92	134	5.0	36	0	36	0	1	0	;
	93	130	5.0	37	0	37	0	1	0	;
	93	135	5.0	38	0	38	0	1	0	;
	94	131	5.0	39	0	39	0	1	0	;
	94	136	5.0	40	0	40	0	1	0	;
	95	132	5.0	41	0	41	0	1	0	;
	95	137	5.0	42	0	42	0	1	0	;
	96	138	5.0	43	0	43	0	1	0	;
	97	134	5.0	44	0	44	0	1	0	;
	97	139	5.0	45	0	45	0	1	0	;
	98	135	5.0	46	0	46	0	1	0	;
	98	140	5.0	47	0	47	0	1	0	;
	99	136	5.0	48	0	48	0	1	0	;
	99	141	5.0	49	0	49	0	1	0	;
	100	137	5.0	50	0	50	0	1	0	;
	100	142	5.0	51	0	51	0	1	0	;
	101	138	5.0	52	0	52	0	1	0	;
	101	143	5.0	53	0	53	0	1	0	;
	102	144	5.0	54	0	54	0	1	0	;
	103	140	5.0	55	0	55	0	1	0	;
	104	141	5.0	56	0	56	0	1	0	;
	105	142	5.0	57	0	57	0	1	0	;
	106	143	5.0	58	0	58	0	1	0	;
	107	144	5.0	59	0	59	0	1	0	;
	109	146	5.0	0	1	60	0	1	0	;
	109	151	5.0	1	1	61	0	1	0	;
	110	147	5.0	2	1	62	0	1	0	;
	110	152	5.0	3	1	63	0	1	0	;
	111	148	5.0	4	1	64	0	1	0	;
	111	153	5.0	5	1	65	0	1	0	;
	112	149	5.0	6	1	66	0	1	0	;
	112	154	5.0	7	1	67	0	1	0	;
	113	150	5.0	8	1	68	0	1	0	;
	113	155	5.0	9	1	69	0	1	0	;
	114	156	5.0	10	1	70	0	1	0	;
	115	152	5.0	11	1	71	0	1	0	;
	115	157	5.0	12	1	72	0	1	0	;
	116	153	5.0	13	1	73	0	1	0	;
	116	158	5.0	14	1	74	0	1	0	;
	117	154	5.0	15	1	75	0	1	0	;
	117	159	5.0	16	1	76	0	1	0	;
	118	155	5.0	17	1	77	0	1	0	;
	118	160	5.0	18	1	78	0	1	0	;
	119	156	5.0	19	1	79	0	1	0	;
	119	161	5.0	20	1	80	0	1	0	;
	120	162	5.0	21	1	81	0	1	0	;
	121	158	5.0	22	1	82	0	1	0	;
	121	163	5.0	23	1	83	0	1	0	;
	122	159	5.0	24	1	84	0	1	0	;
	122	164	5.0	25	1	85	0	1	0	;
	123	160	5.0	26	1	86	0	1	0	;
	123	165	5.0	27	1	87	0	1	0	;
	124	161	5.0	28	1	88	0	1	0	;
	124	166	5.0	29	1	89	0	1	0	;
	125	162	5.0	30	1	90	0	1	0	;
	125	167	5.0	31	1	91	0	1	0	;
	126	168	5.0	32	1	92	0	1	0	;
	127	164	5.0	33	1	93	0	1	0	;
	127	169	5.0	34	1	94	0	1	0	;
	128	165	5.0	35	1	95	0	1	0	;
	128	170	5.0	36	1	96	0	1	0	;
	129	166	5.0	37	1	97	0	1	0	;
	129	171	5.0	38	1	98	0	1	0	;
	130	167	5.0	39	1	99	0	1	0	;
	130	172	5.0	40	1	100	0	1	0	;
	131	168	5.0	41	1	101	0	1	0	;
	131	173	5.0	42	1	102	0	1	0	;
	132	174	5.0	43	1	103	0	1	0	;
	133	170	5.0	44	1	104	0	1	0	;
	133	175	5.0	45	1	105	0	1	0	;
	134	171	5.0	46	1	106	0	1	0	;
	134	176	5.0	47	1	107	0	1	0	;
	135	172	5.0	48	1	108	0	1	0	;
	135	177	5.0	49	1	109	0	1	0	;
	136	173	5.0	50	1	110	0	1	0	;
	136	178	5.0	51	1	111	0	1	0	;
	137	174	5.0	52	1	112	0	1	0	;
	137	179	5.0	53	1	113	0	1	0	;
	138	180	5.0	54	1	114	0	1	0	;
	139	176	5.0	55	1	115	0	1	0	;
	140	177	5.0	56	1	116	0	1	0	;
	141	178	5.0	57	1	117	0	1	0	;
	142	179	5.0	58	1	118	0	1	0	;
	143	180	5.0	59	1	119	0	1	0	;
	145	182	5.0	0	2	120	0	1	0	;
	145	187	5.0	1	2	121	0	1	0	;
	146	183	5.0	2	2	122	0	1	0	;
	146	188	5.0	3	2	123	0	1	0	;
	147	184	5.0	4	2	124	0	1	0	;
	147	189	5.0	5	2	125	0	1	0	;
	148	185	5.0	6	2	126	0	1	0	;
	148	190	5.0	7	2	127	0	1	0	;
	149	186	5.0	8	2	128	0	1	0	;
	149	191	5.0	9	2	129	0	1	0	;
	150	192	5.0	10	2	130	0	1	0	;
	151	188	5.0	11	2	131	0	1	0	;
	151	193	5.0	12	2	132	0	1	0	;
	152	189	5.0	13	2	133	0	1	0	;
	152	194	5.0	14	2	134	0	1	0	;
	153	190	5.0	15	2	135	0	1	0	;
	153	195	5.0	16	2	136	0	1	0	;
	154	191	5.0	17	2	137	0	1	0	;
	154	196	5.0	18	2	138	0	1	0	;
	155	192	5.0	19	2	139	0	1	0	;
	155	197	5.0	20	2	140	0	1	0	;
	156	198	5.0	21	2	141	0	1	0	;
	157	194	5.0	22	2	142	0	1	0	;
	157	199	5.0	23	2	143	0	1	0	;
	158	195	5.0	24	2	144	0	1	0	;
	158	200	5.0	25	2	145	0	1	0	;
	159	196	5.0	26	2	146	0	1	0	;
	159	201	5.0	27	2	147	0	1	0	;
	160	197	5.0	28	2	148	0	1	0	;
	160	202	5.0	29	2	149	0	1	0	;
	161	198	5.0	30	2	150	0	1	0	;
	161	203	5.0	31	2	151	0	1	0	;
	162	204	5.0	32	2	152	0	1	0	;
	163	200	5.0	33	2	153	0	1	0	;
	163	205	5.0	34	2	154	0	1	0	;
	164	201	5.0	35	2	155	0	1	0	;
	164	206	5.0	36	2	156	0	1	0	;
	165	202	5.0	37	2	157	0	1	0	;
	165	207	5.0	38	2	158	0	1	0	;
	166	203	5.0	39	2	159	0	1	0	;
	166	208	5.0	40	2	160	0	1	0	;
	167	204	5.0	41	2	161	0	1	0	;
	167	209	5.0	42	2	162	0	1	0	;
	168	210	5.0	43	2	163	0	1	0	;
	169	206	5.0	44	2	164	0	1	0	;
	169	211	5.0	45	2	165	0	1	0	;
	170	207	5.0	46	2	166	0	1	0	;
	170	212	5.0	47	2	167	0	1	0	;
	171	208	5.0	48	2	168	0	1	0	;
	171	213	5.0	49	2	169	0	1	0	;
	172	209	5.0	50	2	170	0	1	0	;
	172	214	5.0	51	2	171	0	1	0	;
	173	210	5.0	52	2	172	0	1	0	;
	173	215	5.0	53	2	173	0	1	0	;
	174	216	5.0	54	2	174	0	1	0	;
	175	212	5.0	55	2	175	0	1	0	;
	176	213	5.0	56	2	176	0	1	0	;
	177	214	5.0	57	2	177	0	1	0	;
	178	215	5.0	58	2	178	0	1	0	;
	179	216	5.0	59	2	179	0	1	0	;
	181	218	5.0	0	3	180	0	1	0	;
	181	223	5.0	1	3	181	0	1	0	;
	182	219	5.0	2	3	182	0	1	0	;
	182	224	5.0	3	3	183	0	1	0	;
	183	220	5.0	4	3	184	0	1	0	;
	183	225	5.0	5	3	185	0	1	0	;
	184	221	5.0	6	3	186	0	1	0	;
	184	226	5.0	7	3	187	0	1	0	;
	185	222	5.0	8	3	188	0	1	0	;
	185	227	5.0	9	3	189	0	1	0	;
	186	228	5.0	10	3	190	0	1	0	;
	187	224	5.0	11	3	191	0	1	0	;
	187	229	5.0	12	3	192	0	1	0	;
	188	225	5.0	13	3	193	0	1	0	;
	188	230	5.0	14	3	194	0	1	0	;
	189	226	5.0	15	3	195	0	1	0	;
	189	231	5.0	16	3	196	0	1	0	;
	190	227	5.0	17	3	197	0	1	0	;
	190	232	5.0	18	3	198	0	1	0	;
	191	228	5.0	19	3	199	0	1	0	;
	191	233	5.0	20	3	200	0	1	0	;
	192	234	5.0	21	3	201	0	1	0	;
	193	230	5.0	22	3	202	0	1	0	;
	193	235	5.0	23	3	203	0	1	0	;
	194	231	5.0	24	3	204	0	1	0	;
	194	236	5.0	25	3	205	0	1	0	;
	195	232	5.0	26	3	206	0	1	0	;
	195	237	5.0	27	3	207	0	1	0	;
	196	233	5.0	28	3	208	0	1	0	;
	196	238	5.0	29	3	209	0	1	0	;
	197	234	5.0	30	3	210	0	1	0	;
	197	239	5.0	31	3	211	0	1	0	;
	198	240	5.0	32	3	212	0	1	0	;
	199	236	5.0	33	3	213	0	1	0	;
	199	241	5.0	34	3	214	0	1	0	;
	200	237	5.0	35	3	215	0	1	0	;
	200	242	5.0	36	3	216	0	1	0	;
	201	238	5.0	37	3	217	0	1	0	;
	201	243	5.0	38	3	218	0	1	0	;
	202	239	5.0	39	3	219	0	1	0	;
	202	244	5.0	40	3	220	0	1	0	;
	203	240	5.0	41	3	221	0	1	0	;
	203	245	5.0	42	3	222	0	1	0	;
	204	246	5.0	43	3	223	0	1	0	;
	205	242	5.0	44	3	224	0	1	0	;
	205	247	5.0	45	3	225	0	1	0	;
	206	243	5.0	46	3	226	0	1	0	;
	206	248	5.0	47	3	227	0	1	0	;
	207	244	5.0	48	3	228	0	1	0	;
	207	249	5.0	49	3	229	0	1	0	;
	208	245	5.0	50	3	230	0	1	0	;
	208	250	5.0	51	3	231	0	1	0	;
	209	246	5.0	52	3	232	0	1	0	;
	209	251	5.0	53	3	233	0	1	0	;
	210	252	5.0	54	3	234	0	1	0	;
	211	248	5.0	55	3	235	0	1	0	;
	212	249	5.0	56	3	236	0	1	0	;
	213	250	5.0	57	3	237	0	1	0	;
	214	251	5.0	58	3	238	0	1	0	;
	215	252	5.0	59	3	239	0	1	0	;
	217	254	5.0	0	4	240	0	1	0	;
	217	259	5.0	1	4	241	0	1	0	;
	218	255	5.0	2	4	242	0	1	0	;
	218	260	5.0	3	4	243	0	1	0	;
	219	256	5.0	4	4	244	0	1	0	;
	219	261	5.0	5	4	245	0	1	0	;
	220	257	5.0	6	4	246	0	1	0	;
	220	262	5.0	7	4	247	0	1	0	;
	221	258	5.0	8	4	248	0	1	0	;
	221	263	5.0	9	4	249	0	1	0	;
	222	264	5.0	10	4	250	0	1	0	;
	223	260	5.0	11	4	251	0	1	0	;
	223	265	5.0	12	4	252	0	1	0	;
	224	261	5.0	13	4	253	0	1	0	;
	224	266	5.0	14	4	254	0	1	0	;
	225	262	5.0	15	4	255	0	1	0	;
	225	267	5.0	16	4	256	0	1	0	;
	226	263	5.0	17	4	257	0	1	0	;
	226	268	5.0	18	4	258	0	1	0	;
	227	264	5.0	19	4	259	0	1	0	;
	227	269	5.0	20	4	260	0	1	0	;
	228	270	5.0	21	4	261	0	1	0	;
	229	266	5.0	22	4	262	0	1	0	;
	229	271	5.0	23	4	263	0	1	0	;
	230	267	5.0	24	4	264	0	1	0	;
	230	272	5.0	25	4	265	0	1	0	;
	231	268	5.0	26	4	266	0	1	0	;
	231	273	5.0	27	4	267	0	1	0	;
	232	269	5.0	28	4	268	0	1	0	;
	232	274	5.0	29	4	269	0	1	0	;
	233	270	5.0	30	4	270	0	1	0	;
	233	275	5.0	31	4	271	0	1	0	;
	234	276	5.0	32	4	272	0	1	0	;
	235	272	5.0	33	4	273	0	1	0	;
	235	277	5.0	34	4	274	0	1	0	;
	236	273	5.0	35	4	275	0	1	0	;
	236	278	5.0	36	4	276	0	1	0	;
	237	274	5.0	37	4	277	0	1	0	;
	237	279	5.0	38	4	278	0	1	0	;
	238	275	5.0	39	4	279	0	1	0	;
	238	280	5.0	40	4	280	0	1	0	;
	239	276	5.0	41	4	281	0	1	0	;
	239	281	5.0	42	4	282	0	1	0	;
	240	282	5.0	43	4	283	0	1	0	;
	241	278	5.0	44	4	284	0	1	0	;
	241	283	5.0	45	4	285	0	1	0	;
	242	279	5.0	46	4	286	0	1	0	;
	242	284	5.0	47	4	287	0	1	0	;
	243	280	5.0	48	4	288	0	1	0	;
	243	285	5.0	49	4	289	0	1	0	;
	244	281	5.0	50	4	290	0	1	0	;
	244	286	5.0	51	4	291	0	1	0	;
	245	282	5.0	52	4	292	0	1	0	;
	245	287	5.0	53	4	293	0	1	0	;
	246	288	5.0	54	4	294	0	1	0	;
	247	284	5.0	55	4	295	0	1	0	;
	248	285	5.0	56	4	296	0	1	0	;
	249	286	5.0	57	4	297	0	1	0	;
	250	287	5.0	58	4	298	0	1	0	;
	251	288	5.0	59	4	299	0	1	0	;
	253	290	5.0	0	5	300	0	1	0	;
	253	295	5.0	1	5	301	0	1	0	;
	254	291	5.0	2	5	302	0	1	0	;
	254	296	5.0	3	5	303	0	1	0	;
	255	292	5.0	4	5	304	0	1	0	;
	255	297	5.0	5	5	305	0	1	0	;
	256	293	5.0	6	5	306	0	1	0	;
	256	298	5.0	7	5	307	0	1	0	;
	257	294	5.0	8	5	308	0	1	0	;
	257	299	5.0	9	5	309	0	1	0	;
	258	300	5.0	10	5	310	0	1	0	;
	259	296	5.0	11	5	311	0	1	0	;
	259	301	5.0	12	5	312	0	1	0	;
	260	297	5.0	13	5	313	0	1	0	;
	260	302	5.0	14	5	314	0	1	0	;
	261	298	5.0	15	5	315	0	1	0	;
	261	303	5.0	16	5	316	0	1	0	;
	262	299	5.0	17	5	317	0	1	0	;
	262	304	5.0	18	5	318	0	1	0	;
	263	300	5.0	19	5	319	0	1	0	;
	263	305	5.0	20	5	320	0	1	0	;
	264	306	5.0	21	5	321	0	1	0	;
	265	302	5.0	22	5	322	0	1	0	;
	265	307	5.0	23	5	323	0	1	0	;
	266	303	5.0	24	5	324	0	1	0	;
	266	308	5.0	25	5	325	0	1	0	;
	267	304	5.0	26	5	326	0	1	0	;
	267	309	5.0	27	5	327	0	1	0	;
	268	305	5.0	28	5	328	0	1	0	;
	268	310	5.0	29	5	329	0	1	0	;
	269	306	5.0	30	5	330	0	1	0	;
	269	311	5.0	31	5	331	0	1	0	;
	270	312	5.0	32	5	332	0	1	0	;
	271	308	5.0	33	5	333	0	1	0	;
	271	313	5.0	34	5	334	0	1	0	;
	272	309	5.0	35	5	335	0	1	0	;
	272	314	5.0	36	5	336	0	1	0	;
	273	310	5.0	37	5	337	0	1	0	;
	273	315	5.0	38	5	338	0	1	0	;
	274	311	5.0	39	5	339	0	1	0	;
	274	316	5.0	40	5	340	0	1	0	;
	275	312	5.0	41	5	341	0	1	0	;
	275	317	5.0	42	5	342	0	1	0	;
	276	318	5.0	43	5	343	0	1	0	;
	277	314	5.0	44	5	344	0	1	0	;
	277	319	5.0	45	5	345	0	1	0	;
	278	315	5.0	46	5	346	0	1	0	;
	278	320	5.0	47	5	347	0	1	0	;
	279	316	5.0	48	5	348	0	1	0	;
	279	321	5.0	49	5	349	0	1	0	;
	280	317	5.0	50	5	350	0	1	0	;
	280	322	5.0	51	5	351	0	1	0	;
	281	318	5.0	52	5	352	0	1	0	;
	281	323	5.0	53	5	353	0	1	0	;
	282	324	5.0	54	5	354	0	1	0	;
	283	320	5.0	55	5	355	0	1	0	;
	284	321	5.0	56	5	356	0	1	0	;
	285	322	5.0	57	5	357	0	1	0	;
	286	323	5.0	58	5	358	0	1	0	;
	287	324	5.0	59	5	359	0	1	0	;
	289	326	5.0	0	6	360	0	1	0	;
	289	331	5.0	1	6	361	0	1	0	;
	290	327	5.0	2	6	362	0	1	0	;
	290	332	5.0	3	6	363	0	1	0	;
	291	328	5.0	4	6	364	0	1	0	;
	291	333	5.0	5	6	365	0	1	0	;
	292	329	5.0	6	6	366	0	1	0	;
	292	334	5.0	7	6	367	0	1	0	;
	293	330	5.0	8	6	368	0	1	0	;
	293	335	5.0	9	6	369	0	1	0	;
	294	336	5.0	10	6	370	0	1	0	;
	295	332	5.0	11	6	371	0	1	0	;
	295	337	5.0	12	6	372	0	1	0	;
	296	333	5.0	13	6	373	0	1	0	;
	296	338	5.0	14	6	374	0	1	0	;
	297	334	5.0	15	6	375	0	1	0	;
	297	339	5.0	16	6	376	0	1	0	;
	298	335	5.0	17	6	377	0	1	0	;
	298	340	5.0	18	6	378	0	1	0	;
	299	336	5.0	19	6	379	0	1	0	;
	299	341	5.0	20	6	380	0	1	0	;
	300	342	5.0	21	6	381	0	1	0	;
	301	338	5.0	22	6	382	0	1	0	;
	301	343	5.0	23	6	383	0	1	0	;
	302	339	5.0	24	6	384	0	1	0	;
	302	344	5.0	25	6	385	0	1	0	;
	303	340	5.0	26	6	386	0	1	0	;
	303	345	5.0	27	6	387	0	1	0	;
	304	341	5.0	28	6	388	0	1	0	;
	304	346	5.0	29	6	389	0	1	0	;
	305	342	5.0	30	6	390	0	1	0	;
	305	347	5.0	31	6	391	0	1	0	;
	306	348	5.0	32	6	392	0	1	0	;
	307	344	5.0	33	6	393	0	1	0	;
	307	349	5.0	34	6	394	0	1	0	;
	308	345	5.0	35	6	395	0	1	0	;
	308	350	5.0	36	6	396	0	1	0	;
	309	346	5.0	37	6	397	0	1	0	;
	309	351	5.0	38	6	398	0	1	0	;
	310	347	5.0	39	6	399	0	1	0	;
	310	352	5.0	40	6	400	0	1	0	;
	311	348	5.0	41	6	401	0	1	0	;
	311	353	5.0	42	6	402	0	1	0	;
	312	354	5.0	43	6	403	0	1	0	;
	313	350	5.0	44	6	404	0	1	0	;
	313	355	5.0	45	6	405	0	1	0	;
	314	351	5.0	46	6	406	0	1	0	;
	314	356	5.0	47	6	407	0	1	0	;
	315	352	5.0	48	6	408	0	1	0	;
	315	357	5.0	49	6	409	0	1	0	;
	316	353	5.0	50	6	410	0	1	0	;
	316	358	5.0	51	6	411	0	1	0	;
	317	354	5.0	52	6	412	0	1	0	;
	317	359	5.0	53	6	413	0	1	0	;
	318	360	5.0	54	6	414	0	1	0	;
	319	356	5.0	55	6	415	0	1	0	;
	320	357	5.0	56	6	416	0	1	0	;
	321	358	5.0	57	6	417	0	1	0	;
	322	359	5.0	58	6	418	0	1	0	;
	323	360	5.0	59	6	419	0	1	0	;
	325	362	5.0	0	7	420	0	1	0	;
	325	367	5.0	1	7	421	0	1	0	;
	326	363	5.0	2	7	422	0	1	0	;
	326	368	5.0	3	7	423	0	1	0	;
	327	364	5.0	4	7	424	0	1	0	;
	327	369	5.0	5	7	425	0	1	0	;
	328	365	5.0	6	7	426	0	1	0	;
	328	370	5.0	7	7	427	0	1	0	;
	329	366	5.0	8	7	428	0	1	0	;
	329	371	5.0	9	7	429	0	1	0	;
	330	372	5.0	10	7	430	0	1	0	;
	331	368	5.0	11	7	431	0	1	0	;
	331	373	5.0	12	7	432	0	1	0	;
	332	369	5.0	13	7	433	0	1	0	;
	332	374	5.0	14	7	434	0	1	0	;
	333	370	5.0	15	7	435	0	1	0	;
	333	375	5.0	16	7	436	0	1	0	;
	334	371	5.0	17	7	437	0	1	0	;
	334	376	5.0	18	7	438	0	1	0	;
	335	372	5.0	19	7	439	0	1	0	;
	335	377	5.0	20	7	440	0	1	0	;
	336	378	5.0	21	7	441	0	1	0	;
	337	374	5.0	22	7	442	0	1	0	;
	337	379	5.0	23	7	443	0	1	0	;
	338	375	5.0	24	7	444	0	1	0	;
	338	380	5.0	25	7	445	0	1	0	;
	339	376	5.0	26	7	446	0	1	0	;
	339	381	5.0	27	7	447	0	1	0	;
	340	377	5.0	28	7	448	0	1	0	;
	340	382	5.0	29	7	449	0	1	0	;
	341	378	5.0	30	7	450	0	1	0	;
	341	383	5.0	31	7	451	0	1	0	;
	342	384	5.0	32	7	452	0	1	0	;
	343	380	5.0	33	7	453	0	1	0	;
	343	385	5.0	34	7	454	0	1	0	;
	344	381	5.0	35	7	455	0	1	0	;
	344	386	5.0	36	7	456	0	1	0	;
	345	382	5.0	37	7	457	0	1	0	;
	345	387	5.0	38	7	458	0	1	0	;
	346	383	5.0	39	7	459	0	1	0	;
	346	388	5.0	40	7	460	0	1	0	;
	347	384	5.0	41	7	461	0	1	0	;
	347	389	5.0	42	7	462	0	1	0	;
	348	390	5.0	43	7	463	0	1	0	;
	349	386	5.0	44	7	464	0	1	0	;
	349	391	5.0	45	7	465	0	1	0	;
	350	387	5.0	46	7	466	0	1	0	;
	350	392	5.0	47	7	467	0	1	0	;
	351	388	5.0	48	7	468	0	1	0	;
	351	393	5.0	49	7	469	0	1	0	;
	352	389	5.0	50	7	470	0	1	0	;
	352	394	5.0	51	7	471	0	1	0	;
	353	390	5.0	52	7	472	0	1	0	;
	353	395	5.0	53	7	473	0	1	0	;
	354	396	5.0	54	7	474	0	1	0	;
	355	392	5.0	55	7	475	0	1	0	;
	356	393	5.0	56	7	476	0	1	0	;
	357	394	5.0	57	7	477	0	1	0	;
	358	395	5.0	58	7	478	0	1	0	;
	359	396	5.0	59	7	479	0	1	0	;
	361	398	5.0	0	8	480	0	1	0	;
	361	403	5.0	1	8	481	0	1	0	;
	362	399	5.0	2	8	482	0	1	0	;
	362	404	5.0	3	8	483	0	1	0	;
	363	400	5.0	4	8	484	0	1	0	;
	363	405	5.0	5	8	485	0	1	0	;
	364	401	5.0	6	8	486	0	1	0	;
	364	406	5.0	7	8	487	0	1	0	;
	365	402	5.0	8	8	488	0	1	0	;
	365	407	5.0	9	8	489	0	1	0	;
	366	408	5.0	10	8	490	0	1	0	;
	367	404	5.0	11	8	491	0	1	0	;
	367	409	5.0	12	8	492	0	1	0	;
	368	405	5.0	13	8	493	0	1	0	;
	368	410	5.0	14	8	494	0	1	0	;
	369	406	5.0	15	8	495	0	1	0	;
	369	411	5.0	16	8	496	0	1	0	;
	370	407	5.0	17	8	497	0	1	0	;
	370	412	5.0	18	8	498	0	1	0	;
	371	408	5.0	19	8	499	0	1	0	;
	371	413	5.0	20	8	500	0	1	0	;
	372	414	5.0	21	8	501	0	1	0	;
	373	410	5.0	22	8	502	0	1	0	;
	373	415	5.0	23	8	503	0	1	0	;
	374	411	5.0	24	8	504	0	1	0	;
	374	416	5.0	25	8	505	0	1	0	;
	375	412	5.0	26	8	506	0	1	0	;
	375	417	5.0	27	8	507	0	1	0	;
	376	413	5.0	28	8	508	0	1	0	;
	376	418	5.0	29	8	509	0	1	0	;
	377	414	5.0	30	8	510	0	1	0	;
	377	419	5.0	31	8	511	0	1	0	;
	378	420	5.0	32	8	512	0	1	0	;
	379	416	5.0	33	8	513	0	1	0	;
	379	421	5.0	34	8	514	0	1	0	;
	380	417	5.0	35	8	515	0	1	0	;
	380	422	5.0	36	8	516	0	1	0	;
	381	418	5.0	37	8	517	0	1	0	;
	381	423	5.0	38	8	518	0	1	0	;
	382	419	5.0	39	8	519	0	1	0	;
	382	424	5.0	40	8	520	0	1	0	;
	383	420	5.0	41	8	521	0	1	0	;
	383	425	5.0	42	8	522	0	1	0	;
	384	426	5.0	43	8	523	0	1	0	;
	385	422	5.0	44	8	524	0	1	0	;
	385	427	5.0	45	8	525	0	1	0	;
	386	423	5.0	46	8	526	0	1	0	;
	386	428	5.0	47	8	527	0	1	0	;
	387	424	5.0	48	8	528	0	1	0	;
	387	429	5.0	49	8	529	0	1	0	;
	388	425	5.0	50	8	530	0	1	0	;
	388	430	5.0	51	8	531	0	1	0	;
	389	426	5.0	52	8	532	0	1	0	;
	389	431	5.0	53	8	533	0	1	0	;
	390	432	5.0	54	8	534	0	1	0	;
	391	428	5.0	55	8	535	0	1	0	;
	392	429	5.0	56	8	536	0	1	0	;
	393	430	5.0	57	8	537	0	1	0	;
	394	431	5.0	58	8	538	0	1	0	;
	395	432	5.0	59	8	539	0	1	0	;
	397	434	5.0	0	9	540	0	1	0	;
	397	439	5.0	1	9	541	0	1	0	;
	398	435	5.0	2	9	542	0	1	0	;
	398	440	5.0	3	9	543	0	1	0	;
	399	436	5.0	4	9	544	0	1	0	;
	399	441	5.0	5	9	545	0	1	0	;
	400	437	5.0	6	9	546	0	1	0	;
	400	442	5.0	7	9	547	0	1	0	;
	401	438	5.0	8	9	548	0	1	0	;
	401	443	5.0	9	9	549	0	1	0	;
	402	444	5.0	10	9	550	0	1	0	;
	403	440	5.0	11	9	551	0	1	0	;
	403	445	5.0	12	9	552	0	1	0	;
	404	441	5.0	13	9	553	0	1	0	;
	404	446	5.0	14	9	554	0	1	0	;
	405	442	5.0	15	9	555	0	1	0	;
	405	447	5.0	16	9	556	0	1	0	;
	406	443	5.0	17	9	557	0	1	0	;
	406	448	5.0	18	9	558	0	1	0	;
	407	444	5.0	19	9	559	0	1	0	;
	407	449	5.0	20	9	560	0	1	0	;
	408	450	5.0	21	9	561	0	1	0	;
	409	446	5.0	22	9	562	0	1	0	;
	409	451	5.0	23	9	563	0	1	0	;
	410	447	5.0	24	9	564	0	1	0	;
	410	452	5.0	25	9	565	0	1	0	;
	411	448	5.0	26	9	566	0	1	0	;
	411	453	5.0	27	9	567	0	1	0	;
	412	449	5.0	28	9	568	0	1	0	;
	412	454	5.0	29	9	569	0	1	0	;
	413	450	5.0	30	9	570	0	1	0	;
	413	455	5.0	31	9	571	0	1	0	;
	414	456	5.0	32	9	572	0	1	0	;
	415	452	5.0	33	9	573	0	1	0	;
	415	457	5.0	34	9	574	0	1	0	;
	416	453	5.0	35	9	575	0	1	0	;
	416	458	5.0	36	9	576	0	1	0	;
	417	454	5.0	37	9	577	0	1	0	;
	417	459	5.0	38	9	578	0	1	0	;
	418	455	5.0	39	9	579	0	1	0	;
	418	460	5.0	40	9	580	0	1	0	;
	419	456	5.0	41	9	581	0	1	0	;
	419	461	5.0	42	9	582	0	1	0	;
	420	462	5.0	43	9	583	0	1	0	;
	421	458	5.0	44	9	584	0	1	0	;
	421	463	5.0	45	9	585	0	1	0	;
	422	459	5.0	46	9	586	0	1	0	;
	422	464	5.0	47	9	587	0	1	0	;
	423	460	5.0	48	9	588	0	1	0	;
	423	465	5.0	49	9	589	0	1	0	;
	424	461	5.0	50	9	590	0	1	0	;
	424	466	5.0	51	9	591	0	1	0	;
	425	462	5.0	52	9	592	0	1	0	;
	425	467	5.0	53	9	593	0	1	0	;
	426	468	5.0	54	9	594	0	1	0	;
	427	464	5.0	55	9	595	0	1	0	;
	428	465	5.0	56	9	596	0	1	0	;
	429	466	5.0	57	9	597	0	1	0	;
	430	467	5.0	58	9	598	0	1	0	;
	431	468	5.0	59	9	599	0	1	0	;
	433	470	5.0	0	10	600	0	1	0	;
	433	475	5.0	1	10	601	0	1	0	;
	434	471	5.0	2	10	602	0	1	0	;
	434	476	5.0	3	10	603	0	1	0	;
	435	472	5.0	4	10	604	0	1	0	;
	435	477	5.0	5	10	605	0	1	0	;
	436	473	5.0	6	10	606	0	1	0	;
	436	478	5.0	7	10	607	0	1	0	;
	437	474	5.0	8	10	608	0	1	0	;
	437	479	5.0	9	10	609	0	1	0	;
	438	480	5.0	10	10	610	0	1	0	;
	439	476	5.0	11	10	611	0	1	0	;
	439	481	5.0	12	10	612	0	1	0	;
	440	477	5.0	13	10	613	0	1	0	;
	440	482	5.0	14	10	614	0	1	0	;
	441	478	5.0	15	10	615	0	1	0	;
	441	483	5.0	16	10	616	0	1	0	;
	442	479	5.0	17	10	617	0	1	0	;
	442	484	5.0	18	10	618	0	1	0	;
	443	480	5.0	19	10	619	0	1	0	;
	443	485	5.0	20	10	620	0	1	0	;
	444	486	5.0	21	10	621	0	1	0	;
	445	482	5.0	22	10	622	0	1	0	;
	445	487	5.0	23	10	623	0	1	0	;
	446	483	5.0	24	10	624	0	1	0	;
	446	488	5.0	25	10	625	0	1	0	;
	447	484	5.0	26	10	626	0	1	0	;
	447	489	5.0	27	10	627	0	1	0	;
	448	485	5.0	28	10	628	0	1	0	;
	448	490	5.0	29	10	629	0	1	0	;
	449	486	5.0	30	10	630	0	1	0	;
	449	491	5.0	31	10	631	0	1	0	;
	450	492	5.0	32	10	632	0	1	0	;
	451	488	5.0	33	10	633	0	1	0	;
	451	493	5.0	34	10	634	0	1	0	;
	452	489	5.0	35	10	635	0	1	0	;
	452	494	5.0	36	10	636	0	1	0	;
	453	490	5.0	37	10	637	0	1	0	;
	453	495	5.0	38	10	638	0	1	0	;
	454	491	5.0	39	10	639	0	1	0	;
	454	496	5.0	40	10	640	0	1	0	;
	455	492	5.0	41	10	641	0	1	0	;
	455	497	5.0	42	10	642	0	1	0	;
	456	498	5.0	43	10	643	0	1	0	;
	457	494	5.0	44	10	644	0	1	0	;
	457	499	5.0	45	10	645	0	1	0	;
	458	495	5.0	46	10	646	0	1	0	;
	458	500	5.0	47	10	647	0	1	0	;
	459	496	5.0	48	10	648	0	1	0	;
	459	501	5.0	49	10	649	0	1	0	;
	460	497	5.0	50	10	650	0	1	0	;
	460	502	5.0	51	10	651	0	1	0	;
	461	498	5.0	52	10	652	0	1	0	;
	461	503	5.0	53	10	653	0	1	0	;
	462	504	5.0	54	10	654	0	1	0	;
	463	500	5.0	55	10	655	0	1	0	;
	464	501	5.0	56	10	656	0	1	0	;
	465	502	5.0	57	10	657	0	1	0	;
	466	503	5.0	58	10	658	0	1	0	;
	467	504	5.0	59	10	659	0	1	0	;
	469	506	5.0	0	11	660	0	1	0	;
	469	511	5.0	1	11	661	0	1	0	;
	470	507	5.0	2	11	662	0	1	0	;
	470	512	5.0	3	11	663	0	1	0	;
	471	508	5.0	4	11	664	0	1	0	;
	471	513	5.0	5	11	665	0	1	0	;
	472	509	5.0	6	11	666	0	1	0	;
	472	514	5.0	7	11	667	0	1	0	;
	473	510	5.0	8	11	668	0	1	0	;
	473	515	5.0	9	11	669	0	1	0	;
	474	516	5.0	10	11	670	0	1	0	;
	475	512	5.0	11	11	671	0	1	0	;
	475	517	5.0	12	11	672	0	1	0	;
	476	513	5.0	13	11	673	0	1	0	;
	476	518	5.0	14	11	674	0	1	0	;
	477	514	5.0	15	11	675	0	1	0	;
	477	519	5.0	16	11	676	0	1	0	;
	478	515	5.0	17	11	677	0	1	0	;
	478	520	5.0	18	11	678	0	1	0	;
	479	516	5.0	19	11	679	0	1	0	;
	479	521	5.0	20	11	680	0	1	0	;
	480	522	5.0	21	11	681	0	1	0	;
	481	518	5.0	22	11	682	0	1	0	;
	481	523	5.0	23	11	683	0	1	0	;
	482	519	5.0	24	11	684	0	1	0	;
	482	524	5.0	25	11	685	0	1	0	;
	483	520	5.0	26	11	686	0	1	0	;
	483	525	5.0	27	11	687	0	1	0	;
	484	521	5.0	28	11	688	0	1	0	;
	484	526	5.0	29	11	689	0	1	0	;
	485	522	5.0	30	11	690	0	1	0	;
	485	527	5.0	31	11	691	0	1	0	;
	486	528	5.0	32	11	692	0	1	0	;
	487	524	5.0	33	11	693	0	1	0	;
	487	529	5.0	34	11	694	0	1	0	;
	488	525	5.0	35	11	695	0	1	0	;
	488	530	5.0	36	11	696	0	1	0	;
	489	526	5.0	37	11	697	0	1	0	;
	489	531	5.0	38	11	698	0	1	0	;
	490	527	5.0	39	11	699	0	1	0	;
	490	532	5.0	40	11	700	0	1	0	;
	491	528	5.0	41	11	701	0	1	0	;
	491	533	5.0	42	11	702	0	1	0	;
	492	534	5.0	43	11	703	0	1	0	;
	493	530	5.0	44	11	704	0	1	0	;
	493	535	5.0	45	11	705	0	1	0	;
	494	531	5.0	46	11	706	0	1	0	;
	494	536	5.0	47	11	707	0	1	0	;
	495	532	5.0	48	11	708	0	1	0	;
	495	537	5.0	49	11	709	0	1	0	;
	496	533	5.0	50	11	710	0	1	0	;
	496	538	5.0	51	11	711	0	1	0	;
	497	534	5.0	52	11	712	0	1	0	;
	497	539	5.0	53	11	713	0	1	0	;
	498	540	5.0	54	11	714	0	1	0	;
	499	536	5.0	55	11	715	0	1	0	;
	500	537	5.0	56	11	716	0	1	0	;
	501	538	5.0	57	11	717	0	1	0	;
	502	539	5.0	58	11	718	0	1	0	;
	503	540	5.0	59	11	719	0	1	0	;
	505	542	5.0	0	12	720	0	1	0	;
	505	547	5.0	1	12	721	0	1	0	;
	506	543	5.0	2	12	722	0	1	0	;
	506	548	5.0	3	12	723	0	1	0	;
	507	544	5.0	4	12	724	0	1	0	;
	507	549	5.0	5	12	725	0	1	0	;
	508	545	5.0	6	12	726	0	1	0	;
	508	550	5.0	7	12	727	0	1	0	;
	509	546	5.0	8	12	728	0	1	0	;
	509	551	5.0	9	12	729	0	1	0	;
	510	552	5.0	10	12	730	0	1	0	;
	511	548	5.0	11	12	731	0	1	0	;
	511	553	5.0	12	12	732	0	1	0	;
	512	549	5.0	13	12	733	0	1	0	;
	512	554	5.0	14	12	734	0	1	0	;
	513	550	5.0	15	12	735	0	1	0	;
	513	555	5.0	16	12	736	0	1	0	;
	514	551	5.0	17	12	737	0	1	0	;
	514	556	5.0	18	12	738	0	1	0	;
	515	552	5.0	19	12	739	0	1	0	;
	515	557	5.0	20	12	740	0	1	0	;
	516	558	5.0	21	12	741	0	1	0	;
	517	554	5.0	22	12	742	0	1	0	;
	517	559	5.0	23	12	743	0	1	0	;
	518	555	5.0	24	12	744	0	1	0	;
	518	560	5.0	25	12	745	0	1	0	;
	519	556	5.0	26	12	746	0	1	0	;
	519	561	5.0	27	12	747	0	1	0	;
	520	557	5.0	28	12	748	0	1	0	;
	520	562	5.0	29	12	749	0	1	0	;
	521	558	5.0	30	12	750	0	1	0	;
	521	563	5.0	31	12	751	0	1	0	;
	522	564	5.0	32	12	752	0	1	0	;
	523	560	5.0	33	12	753	0	1	0	;
	523	565	5.0	34	12	754	0	1	0	;
	524	561	5.0	35	12	755	0	1	0	;
	524	566	5.0	36	12	756	0	1	0	;
	525	562	5.0	37	12	757	0	1	0	;
	525	567	5.0	38	12	758	0	1	0	;
	526	563	5.0	39	12	759	0	1	0	;
	526	568	5.0	40	12	760	0	1	0	;
	527	564	5.0	41	12	761	0	1	0	;
	527	569	5.0	42	12	762	0	1	0	;
	528	570	5.0	43	12	763	0	1	0	;
	529	566	5.0	44	12	764	0	1	0	;
	529	571	5.0	45	12	765	0	1	0	;
	530	567	5.0	46	12	766	0	1	0	;
	530	572	5.0	47	12	767	0	1	0	;
	531	568	5.0	48	12	768	0	1	0	;
	531	573	5.0	49	12	769	0	1	0	;
	532	569	5.0	50	12	770	0	1	0	;
	532	574	5.0	51	12	771	0	1	0	;
	533	570	5.0	52	12	772	0	1	0	;
	533	575	5.0	53	12	773	0	1	0	;
	534	576	5.0	54	12	774	0	1	0	;
	535	572	5.0	55	12	775	0	1	0	;
	536	573	5.0	56	12	776	0	1	0	;
	537	574	5.0	57	12	777	0	1	0	;
	538	575	5.0	58	12	778	0	1	0	;
	539	576	5.0	59	12	779	0	1	0	;
	541	578	5.0	0	13	780	0	1	0	;
	541	583	5.0	1	13	781	0	1	0	;
	542	579	5.0	2	13	782	0	1	0	;
	542	584	5.0	3	13	783	0	1	0	;
	543	580	5.0	4	13	784	0	1	0	;
	543	585	5.0	5	13	785	0	1	0	;
	544	581	5.0	6	13	786	0	1	0	;
	544	586	5.0	7	13	787	0	1	0	;
	545	582	5.0	8	13	788	0	1	0	;
	545	587	5.0	9	13	789	0	1	0	;
	546	588	5.0	10	13	790	0	1	0	;
	547	584	5.0	11	13	791	0	1	0	;
	547	589	5.0	12	13	792	0	1	0	;
	548	585	5.0	13	13	793	0	1	0	;
	548	590	5.0	14	13	794	0	1	0	;
	549	586	5.0	15	13	795	0	1	0	;
	549	591	5.0	16	13	796	0	1	0	;
	550	587	5.0	17	13	797	0	1	0	;
	550	592	5.0	18	13	798	0	1	0	;
	551	588	5.0	19	13	799	0	1	0	;
	551	593	5.0	20	13	800	0	1	0	;
	552	594	5.0	21	13	801	0	1	0	;
	553	590	5.0	22	13	802	0	1	0	;
	553	595	5.0	23	13	803	0	1	0	;
	554	591	5.0	24	13	804	0	1	0	;
	554	596	5.0	25	13	805	0	1	0	;
	555	592	5.0	26	13	806	0	1	0	;
	555	597	5.0	27	13	807	0	1	0	;
	556	593	5.0	28	13	808	0	1	0	;
	556	598	5.0	29	13	809	0	1	0	;
	557	594	5.0	30	13	810	0	1	0	;
	557	599	5.0	31	13	811	0	1	0	;
	558	600	5.0	32	13	812	0	1	0	;
	559	596	5.0	33	13	813	0	1	0	;
	559	601	5.0	34	13	814	0	1	0	;
	560	597	5.0	35	13	815	0	1	0	;
	560	602	5.0	36	13	816	0	1	0	;
	561	598	5.0	37	13	817	0	1	0	;
	561	603	5.0	38	13	818	0	1	0	;
	562	599	5.0	39	13	819	0	1	0	;
	562	604	5.0	40	13	820	0	1	0	;
	563	600	5.0	41	13	821	0	1	0	;
	563	605	5.0	42	13	822	0	1	0	;
	564	606	5.0	43	13	823	0	1	0	;
	565	602	5.0	44	13	824	0	1	0	;
	565	607	5.0	45	13	825	0	1	0	;
	566	603	5.0	46	13	826	0	1	0	;
	566	608	5.0	47	13	827	0	1	0	;
	567	604	5.0	48	13	828	0	1	0	;
	567	609	5.0	49	13	829	0	1	0	;
	568	605	5.0	50	13	830	0	1	0	;
	568	610	5.0	51	13	831	0	1	0	;
	569	606	5.0	52	13	832	0	1	0	;
	569	611	5.0	53	13	833	0	1	0	;
	570	612	5.0	54	13	834	0	1	0	;
	571	608	5.0	55	13	835	0	1	0	;
	572	609	5.0	56	13	836	0	1	0	;
	573	610	5.0	57	13	837	0	1	0	;
	574	611	5.0	58	13	838	0	1	0	;
	575	612	5.0	59	13	839	0	1	0	;
	577	614	5.0	0	14	840	0	1	0	;
	577	619	5.0	1	14	841	0	1	0	;
	578	615	5.0	2	14	842	0	1	0	;
	578	620	5.0	3	14	843	0	1	0	;
	579	616	5.0	4	14	844	0	1	0	;
	579	621	5.0	5	14	845	0	1	0	;
	580	617	5.0	6	14	846	0	1	0	;
	580	622	5.0	7	14	847	0	1	0	;
	581	618	5.0	8	14	848	0	1	0	;
	581	623	5.0	9	14	849	0	1	0	;
	582	624	5.0	10	14	850	0	1	0	;
	583	620	5.0	11	14	851	0	1	0	;
	583	625	5.0	12	14	852	0	1	0	;
	584	621	5.0	13	14	853	0	1	0	;
	584	626	5.0	14	14	854	0	1	0	;
	585	622	5.0	15	14	855	0	1	0	;
	585	627	5.0	16	14	856	0	1	0	;
	586	623	5.0	17	14	857	0	1	0	;
	586	628	5.0	18	14	858	0	1	0	;
	587	624	5.0	19	14	859	0	1	0	;
	587	629	5.0	20	14	860	0	1	0	;
	588	630	5.0	21	14	861	0	1	0	;
	589	626	5.0	22	14	862	0	1	0	;
	589	631	5.0	23	14	863	0	1	0	;
	590	627	5.0	24	14	864	0	1	0	;
	590	632	5.0	25	14	865	0	1	0	;
	591	628	5.0	26	14	866	0	1	0	;
	591	633	5.0	27	14	867	0	1	0	;
	592	629	5.0	28	14	868	0	1	0	;
	592	634	5.0	29	14	869	0	1	0	;
	593	630	5.0	30	14	870	0	1	0	;
	593	635	5.0	31	14	871	0	1	0	;
	594	636	5.0	32	14	872	0	1	0	;
	595	632	5.0	33	14	873	0	1	0	;
	595	637	5.0	34	14	874	0	1	0	;
	596	633	5.0	35	14	875	0	1	0	;
	596	638	5.0	36	14	876	0	1	0	;
	597	634	5.0	37	14	877	0	1	0	;
	597	639	5.0	38	14	878	0	1	0	;
	598	635	5.0	39	14	879	0	1	0	;
	598	640	5.0	40	14	880	0	1	0	;
	599	636	5.0	41	14	881	0	1	0	;
	599	641	5.0	42	14	882	0	1	0	;
	600	642	5.0	43	14	883	0	1	0	;
	601	638	5.0	44	14	884	0	1	0	;
	601	643	5.0	45	14	885	0	1	0	;
	602	639	5.0	46	14	886	0	1	0	;
	602	644	5.0	47	14	887	0	1	0	;
	603	640	5.0	48	14	888	0	1	0	;
	603	645	5.0	49	14	889	0	1	0	;
	604	641	5.0	50	14	890	0	1	0	;
	604	646	5.0	51	14	891	0	1	0	;
	605	642	5.0	52	14	892	0	1	0	;
	605	647	5.0	53	14	893	0	1	0	;
	606	648	5.0	54	14	894	0	1	0	;
	607	644	5.0	55	14	895	0	1	0	;
	608	645	5.0	56	14	896	0	1	0	;
	609	646	5.0	57	14	897	0	1	0	;
	610	647	5.0	58	14	898	0	1	0	;
	611	648	5.0	59	14	899	0	1	0	;
	613	650	5.0	0	15	900	0	1	0	;
	613	655	5.0	1	15	901	0	1	0	;
	614	651	5.0	2	15	902	0	1	0	;
	614	656	5.0	3	15	903	0	1	0	;
	615	652	5.0	4	15	904	0	1	0	;
	615	657	5.0	5	15	905	0	1	0	;
	616	653	5.0	6	15	906	0	1	0	;
	616	658	5.0	7	15	907	0	1	0	;
	617	654	5.0	8	15	908	0	1	0	;
	617	659	5.0	9	15	909	0	1	0	;
	618	660	5.0	10	15	910	0	1	0	;
	619	656	5.0	11	15	911	0	1	0	;
	619	661	5.0	12	15	912	0	1	0	;
	620	657	5.0	13	15	913	0	1	0	;
	620	662	5.0	14	15	914	0	1	0	;
	621	658	5.0	15	15	915	0	1	0	;
	621	663	5.0	16	15	916	0	1	0	;
	622	659	5.0	17	15	917	0	1	0	;
	622	664	5.0	18	15	918	0	1	0	;
	623	660	5.0	19	15	919	0	1	0	;
	623	665	5.0	20	15	920	0	1	0	;
	624	666	5.0	21	15	921	0	1	0	;
	625	662	5.0	22	15	922	0	1	0	;
	625	667	5.0	23	15	923	0	1	0	;
	626	663	5.0	24	15	924	0	1	0	;
	626	668	5.0	25	15	925	0	1	0	;
	627	664	5.0	26	15	926	0	1	0	;
	627	669	5.0	27	15	927	0	1	0	;
	628	665	5.0	28	15	928	0	1	0	;
	628	670	5.0	29	15	929	0	1	0	;
	629	666	5.0	30	15	930	0	1	0	;
	629	671	5.0	31	15	931	0	1	0	;
	630	672	5.0	32	15	932	0	1	0	;
	631	668	5.0	33	15	933	0	1	0	;
	631	673	5.0	34	15	934	0	1	0	;
	632	669	5.0	35	15	935	0	1	0	;
	632	674	5.0	36	15	936	0	1	0	;
	633	670	5.0	37	15	937	0	1	0	;
	633	675	5.0	38	15	938	0	1	0	;
	634	671	5.0	39	15	939	0	1	0	;
	634	676	5.0	40	15	940	0	1	0	;
	635	672	5.0	41	15	941	0	1	0	;
	635	677	5.0	42	15	942	0	1	0	;
	636	678	5.0	43	15	943	0	1	0	;
	637	674	5.0	44	15	944	0	1	0	;
	637	679	5.0	45	15	945	0	1	0	;
	638	675	5.0	46	15	946	0	1	0	;
	638	680	5.0	47	15	947	0	1	0	;
	639	676	5.0	48	15	948	0	1	0	;
	639	681	5.0	49	15	949	0	1	0	;
	640	677	5.0	50	15	950	0	1	0	;
	640	682	5.0	51	15	951	0	1	0	;
	641	678	5.0	52	15	952	0	1	0	;
	641	683	5.0	53	15	953	0	1	0	;
	642	684	5.0	54	15	954	0	1	0	;
	643	680	5.0	55	15	955	0	1	0	;
	644	681	5.0	56	15	956	0	1	0	;
	645	682	5.0	57	15	957	0	1	0	;
	646	683	5.0	58	15	958	0	1	0	;
	647	684	5.0	59	15	959	0	1	0	;
	649	686	5.0	0	16	960	0	1	0	;
	649	691	5.0	1	16	961	0	1	0	;
	650	687	5.0	2	16	962	0	1	0	;
	650	692	5.0	3	16	963	0	1	0	;
	651	688	5.0	4	16	964	0	1	0	;
	651	693	5.0	5	16	965	0	1	0	;
	652	689	5.0	6	16	966	0	1	0	;
	652	694	5.0	7	16	967	0	1	0	;
	653	690	5.0	8	16	968	0	1	0	;
	653	695	5.0	9	16	969	0	1	0	;
	654	696	5.0	10	16	970	0	1	0	;
	655	692	5.0	11	16	971	0	1	0	;
	655	697	5.0	12	16	972	0	1	0	;
	656	693	5.0	13	16	973	0	1	0	;
	656	698	5.0	14	16	974	0	1	0	;
	657	694	5.0	15	16	975	0	1	0	;
	657	699	5.0	16	16	976	0	1	0	;
	658	695	5.0	17	16	977	0	1	0	;
	658	700	5.0	18	16	978	0	1	0	;
	659	696	5.0	19	16	979	0	1	0	;
	659	701	5.0	20	16	980	0	1	0	;
	660	702	5.0	21	16	981	0	1	0	;
	661	698	5.0	22	16	982	0	1	0	;
	661	703	5.0	23	16	983	0	1	0	;
	662	699	5.0	24	16	984	0	1	0	;
	662	704	5.0	25	16	985	0	1	0	;
	663	700	5.0	26	16	986	0	1	0	;
	663	705	5.0	27	16	987	0	1	0	;
	664	701	5.0	28	16	988	0	1	0	;
	664	706	5.0	29	16	989	0	1	0	;