<NUMBER OF ZONES> 8
<TOTAL OD FLOW> 1000.0
<END OF METADATA>



Origin  1
	5 :	45.07587439821437;	6 :	79.58362194708738;	7 :	77.64925884922373;	8 :	29.576395051197192;

Origin  2
	5 :	56.30817648818572;	6 :	20.83680037906272;	7 :	49.67940913949612;	8 :	83.59490444036265;

Origin  3
	5 :	69.76303639448264;	6 :	91.5743335119504;	7 :	40.238747909856684;	8 :	67.65541923262106;

Origin  4
	5 :	91.7880606384511;	6 :	59.84648087585967;	7 :	91.33570831061122;	8 :	45.49377243333732;