<NUMBER OF ZONES> 18
<NUMBER OF NODES> 180
<FIRST THRU NODE> 1
<NUMBER OF LINKS> 228
<ORIGINAL HEADER> 
<END OF METADATA>


~	init_node	term_node	capacity	free_flow_time	original_link	time	;
	1	11	1774.0	5.0	0	0	;
	1	13	4859.0	5.0	1	0	;
	2	12	1930.0	5.0	2	0	;
	2	14	2782.0	5.0	3	0	;
	3	15	4657.0	5.0	4	0	;
	4	14	4031.0	5.0	5	0	;
	4	16	4112.0	5.0	6	0	;
	5	15	1110.0	5.0	7	0	;
	5	17	3490.0	5.0	8	0	;
	6	18	2542.0	5.0	9	0	;
	7	17	4946.0	5.0	10	0	;
	8	18	1445.0	5.0	11	0	;
	10	20	1774.0	5.0	0	1	;
	10	22	4859.0	5.0	1	1	;
	11	21	1930.0	5.0	2	1	;
	11	23	2782.0	5.0	3	1	;
	12	24	4657.0	5.0	4	1	;
	13	23	4031.0	5.0	5	1	;
	13	25	4112.0	5.0	6	1	;
	14	24	1110.0	5.0	7	1	;
	14	26	3490.0	5.0	8	1	;
	15	27	2542.0	5.0	9	1	;
	16	26	4946.0	5.0	10	1	;
	17	27	1445.0	5.0	11	1	;
	19	29	1774.0	5.0	0	2	;
	19	31	4859.0	5.0	1	2	;
	20	30	1930.0	5.0	2	2	;
	20	32	2782.0	5.0	3	2	;
	21	33	4657.0	5.0	4	2	;
	22	32	4031.0	5.0	5	2	;
	22	34	4112.0	5.0	6	2	;
	23	33	1110.0	5.0	7	2	;
	23	35	3490.0	5.0	8	2	;
	24	36	2542.0	5.0	9	2	;
	25	35	4946.0	5.0	10	2	;
	26	36	1445.0	5.0	11	2	;
	28	38	1774.0	5.0	0	3	;
	28	40	4859.0	5.0	1	3	;
	29	39	1930.0	5.0	2	3	;
	29	41	2782.0	5.0	3	3	;
	30	42	4657.0	5.0	4	3	;
	31	41	4031.0	5.0	5	3	;
	31	43	4112.0	5.0	6	3	;
	32	42	1110.0	5.0	7	3	;
	32	44	3490.0	5.0	8	3	;
	33	45	2542.0	5.0	9	3	;
	34	44	4946.0	5.0	10	3	;
	35	45	1445.0	5.0	11	3	;
	37	47	1774.0	5.0	0	4	;
	37	49	4859.0	5.0	1	4	;
	38	48	1930.0	5.0	2	4	;
	38	50	2782.0	5.0	3	4	;
	39	51	4657.0	5.0	4	4	;
	40	50	4031.0	5.0	5	4	;
	40	52	4112.0	5.0	6	4	;
	41	51	1110.0	5.0	7	4	;
	41	53	3490.0	5.0	8	4	;
	42	54	2542.0	5.0	9	4	;
	43	53	4946.0	5.0	10	4	;
	44	54	1445.0	5.0	11	4	;
	46	56	1774.0	5.0	0	5	;
	46	58	4859.0	5.0	1	5	;
	47	57	1930.0	5.0	2	5	;
	47	59	2782.0	5.0	3	5	;
	48	60	4657.0	5.0	4	5	;
	49	59	4031.0	5.0	5	5	;
	49	61	4112.0	5.0	6	5	;
	50	60	1110.0	5.0	7	5	;
	50	62	3490.0	5.0	8	5	;
	51	63	2542.0	5.0	9	5	;
	52	62	4946.0	5.0	10	5	;
	53	63	1445.0	5.0	11	5	;
	55	65	1774.0	5.0	0	6	;
	55	67	4859.0	5.0	1	6	;
	56	66	1930.0	5.0	2	6	;
	56	68	2782.0	5.0	3	6	;
	57	69	4657.0	5.0	4	6	;
	58	68	4031.0	5.0	5	6	;
	58	70	4112.0	5.0	6	6	;
	59	69	1110.0	5.0	7	6	;
	59	71	3490.0	5.0	8	6	;
	60	72	2542.0	5.0	9	6	;
	61	71	4946.0	5.0	10	6	;
	62	72	1445.0	5.0	11	6	;
	64	74	1774.0	5.0	0	7	;
	64	76	4859.0	5.0	1	7	;
	65	75	1930.0	5.0	2	7	;
	65	77	2782.0	5.0	3	7	;
	66	78	4657.0	5.0	4	7	;
	67	77	4031.0	5.0	5	7	;
	67	79	4112.0	5.0	6	7	;
	68	78	1110.0	5.0	7	7	;
	68	80	3490.0	5.0	8	7	;
	69	81	2542.0	5.0	9	7	;
	70	80	4946.0	5.0	10	7	;
	71	81	1445.0	5.0	11	7	;
	73	83	1774.0	5.0	0	8	;
	73	85	4859.0	5.0	1	8	;
	74	84	1930.0	5.0	2	8	;
	74	86	2782.0	5.0	3	8	;
	75	87	4657.0	5.0	4	8	;
	76	86	4031.0	5.0	5	8	;
	76	88	4112.0	5.0	6	8	;
	77	87	1110.0	5.0	7	8	;
	77	89	3490.0	5.0	8	8	;
	78	90	2542.0	5.0	9	8	;
	79	89	4946.0	5.0	10	8	;
	80	90	1445.0	5.0	11	8	;
	82	92	1774.0	5.0	0	9	;
	82	94	4859.0	5.0	1	9	;
	83	93	1930.0	5.0	2	9	;
	83	95	2782.0	5.0	3	9	;
	84	96	4657.0	5.0	4	9	;
	85	95	4031.0	5.0	5	9	;
	85	97	4112.0	5.0	6	9	;
	86	96	1110.0	5.0	7	9	;
	86	98	3490.0	5.0	8	9	;
	87	99	2542.0	5.0	9	9	;
	88	98	4946.0	5.0	10	9	;
	89	99	1445.0	5.0	11	9	;
	91	101	1774.0	5.0	0	10	;
	91	103	4859.0	5.0	1	10	;
	92	102	1930.0	5.0	2	10	;
	92	104	2782.0	5.0	3	10	;
	93	105	4657.0	5.0	4	10	;
	94	104	4031.0	5.0	5	10	;
	94	106	4112.0	5.0	6	10	;
	95	105	1110.0	5.0	7	10	;
	95	107	3490.0	5.0	8	10	;
	96	108	2542.0	5.0	9	10	;
	97	107	4946.0	5.0	10	10	;
	98	108	1445.0	5.0	11	10	;
	100	110	1774.0	5.0	0	11	;
	100	112	4859.0	5.0	1	11	;
	101	111	1930.0	5.0	2	11	;
	101	113	2782.0	5.0	3	11	;
	102	114	4657.0	5.0	4	11	;
	103	113	4031.0	5.0	5	11	;
	103	115	4112.0	5.0	6	11	;
	104	114	1110.0	5.0	7	11	;
	104	116	3490.0	5.0	8	11	;
	105	117	2542.0	5.0	9	11	;
	106	116	4946.0	5.0	10	11	;
	107	117	1445.0	5.0	11	11	;
	109	119	1774.0	5.0	0	12	;
	109	121	4859.0	5.0	1	12	;
	110	120	1930.0	5.0	2	12	;
	110	122	2782.0	5.0	3	12	;
	111	123	4657.0	5.0	4	12	;
	112	122	4031.0	5.0	5	12	;
	112	124	4112.0	5.0	6	12	;
	113	123	1110.0	5.0	7	12	;
	113	125	3490.0	5.0	8	12	;
	114	126	2542.0	5.0	9	12	;
	115	125	4946.0	5.0	10	12	;
	116	126	1445.0	5.0	11	12	;
	118	128	1774.0	5.0	0	13	;
	118	130	4859.0	5.0	1	13	;
	119	129	1930.0	5.0	2	13	;
	119	131	2782.0	5.0	3	13	;
	120	132	4657.0	5.0	4	13	;
	121	131	4031.0	5.0	5	13	;
	121	133	4112.0	5.0	6	13	;
	122	132	1110.0	5.0	7	13	;
	122	134	3490.0	5.0	8	13	;
	123	135	2542.0	5.0	9	13	;
	124	134	4946.0	5.0	10	13	;
	125	135	1445.0	5.0	11	13	;
	127	137	1774.0	5.0	0	14	;
	127	139	4859.0	5.0	1	14	;
	128	138	1930.0	5.0	2	14	;
	128	140	2782.0	5.0	3	14	;
	129	141	4657.0	5.0	4	14	;
	130	140	4031.0	5.0	5	14	;
	130	142	4112.0	5.0	6	14	;
	131	141	1110.0	5.0	7	14	;
	131	143	3490.0	5.0	8	14	;
	132	144	2542.0	5.0	9	14	;
	133	143	4946.0	5.0	10	14	;
	134	144	1445.0	5.0	11	14	;
	136	146	1774.0	5.0	0	15	;
	136	148	4859.0	5.0	1	15	;
	137	147	1930.0	5.0	2	15	;
	137	149	2782.0	5.0	3	15	;
	138	150	4657.0	5.0	4	15	;
	139	149	4031.0	5.0	5	15	;
	139	151	4112.0	5.0	6	15	;
	140	150	1110.0	5.0	7	15	;
	140	152	3490.0	5.0	8	15	;
	141	153	2542.0	5.0	9	15	;
	142	152	4946.0	5.0	10	15	;
	143	153	1445.0	5.0	11	15	;
	145	155	1774.0	5.0	0	16	;
	145	157	4859.0	5.0	1	16	;
	146	156	1930.0	5.0	2	16	;
	146	158	2782.0	5.0	3	16	;
	147	159	4657.0	5.0	4	16	;
	148	158	4031.0	5.0	5	16	;
	148	160	4112.0	5.0	6	16	;
	149	159	1110.0	5.0	7	16	;
	149	161	3490.0	5.0	8	16	;
	150	162	2542.0	5.0	9	16	;
	151	161	4946.0	5.0	10	16	;
	152	162	1445.0	5.0	11	16	;
	154	164	1774.0	5.0	0	17	;
	154	166	4859.0	5.0	1	17	;
	155	165	1930.0	5.0	2	17	;
	155	167	2782.0	5.0	3	17	;
	156	168	4657.0	5.0	4	17	;
	157	167	4031.0	5.0	5	17	;
	157	169	4112.0	5.0	6	17	;
	158	168	1110.0	5.0	7	17	;
	158	170	3490.0	5.0	8	17	;
	159	171	2542.0	5.0	9	17	;
	160	170	4946.0	5.0	10	17	;
	161	171	1445.0	5.0	11	17	;
	163	173	1774.0	5.0	0	18	;
	163	175	4859.0	5.0	1	18	;
	164	174	1930.0	5.0	2	18	;
	164	176	2782.0	5.0	3	18	;
	165	177	4657.0	5.0	4	18	;
	166	176	4031.0	5.0	5	18	;
	166	178	4112.0	5.0	6	18	;
	167	177	1110.0	5.0	7	18	;
	167	179	3490.0	5.0	8	18	;
	168	180	2542.0	5.0	9	18	;
	169	179	4946.0	5.0	10	18	;
	170	180	1445.0	5.0	11	18	;