<NUMBER OF ZONES> 48
<TOTAL OD FLOW> 10000.0
<END OF METADATA>



Origin  1
	25 :	18.0;	26 :	33.0;	27 :	29.0;	28 :	24.0;	29 :	1.0;
	30 :	2.0;	31 :	15.0;	32 :	9.0;	33 :	29.0;	34 :	1.0;
	35 :	26.0;	36 :	23.0;	37 :	16.0;	38 :	20.0;	39 :	5.0;
	40 :	25.0;	41 :	21.0;	42 :	3.0;	43 :	34.0;	44 :	12.0;
	45 :	28.0;	46 :	15.0;	47 :	13.0;	48 :	17.0;

Origin  2
	25 :	18.0;	26 :	21.0;	27 :	10.0;	28 :	19.0;	29 :	26.0;
	30 :	6.0;	31 :	10.0;	32 :	29.0;	33 :	10.0;	34 :	31.0;
	35 :	16.0;	36 :	25.0;	37 :	23.0;	38 :	24.0;	39 :	10.0;
	40 :	11.0;	41 :	13.0;	42 :	21.0;	43 :	33.0;	44 :	12.0;
	45 :	34.0;	46 :	2.0;	47 :	11.0;	48 :	31.0;

Origin  3
	25 :	21.0;	26 :	20.0;	27 :	33.0;	28 :	8.0;	29 :	10.0;
	30 :	34.0;	31 :	21.0;	32 :	4.0;	33 :	9.0;	34 :	34.0;
	35 :	6.0;	36 :	34.0;	37 :	30.0;	38 :	9.0;	39 :	22.0;
	40 :	22.0;	41 :	22.0;	42 :	16.0;	43 :	24.0;	44 :	5.0;
	45 :	1.0;	46 :	13.0;	47 :	22.0;	48 :	8.0;

Origin  4
	25 :	30.0;	26 :	0.0;	27 :	6.0;	28 :	1.0;	29 :	11.0;
	30 :	20.0;	31 :	27.0;	32 :	34.0;	33 :	22.0;	34 :	13.0;
	35 :	12.0;	36 :	15.0;	37 :	30.0;	38 :	7.0;	39 :	33.0;
	40 :	29.0;	41 :	26.0;	42 :	3.0;	43 :	31.0;	44 :	28.0;
	45 :	25.0;	46 :	32.0;	47 :	4.0;	48 :	33.0;

Origin  5
	25 :	33.0;	26 :	24.0;	27 :	4.0;	28 :	25.0;	29 :	9.0;
	30 :	33.0;	31 :	0.0;	32 :	9.0;	33 :	20.0;	34 :	25.0;
	35 :	22.0;	36 :	26.0;	37 :	9.0;	38 :	22.0;	39 :	6.0;
	40 :	11.0;	41 :	5.0;	42 :	5.0;	43 :	34.0;	44 :	8.0;
	45 :	8.0;	46 :	20.0;	47 :	28.0;	48 :	4.0;

Origin  6
	25 :	27.0;	26 :	31.0;	27 :	8.0;	28 :	26.0;	29 :	18.0;
	30 :	11.0;	31 :	28.0;	32 :	9.0;	33 :	22.0;	34 :	22.0;
	35 :	7.0;	36 :	20.0;	37 :	27.0;	38 :	19.0;	39 :	17.0;
	40 :	11.0;	41 :	7.0;	42 :	31.0;	43 :	24.0;	44 :	1.0;
	45 :	5.0;	46 :	6.0;	47 :	29.0;	48 :	3.0;

Origin  7
	25 :	26.0;	26 :	20.0;	27 :	4.0;	28 :	12.0;	29 :	30.0;
	30 :	22.0;	31 :	23.0;	32 :	15.0;	33 :	15.0;	34 :	7.0;
	35 :	0.0;	36 :	22.0;	37 :	4.0;	38 :	32.0;	39 :	12.0;
	40 :	15.0;	41 :	26.0;	42 :	30.0;	43 :	32.0;	44 :	13.0;
	45 :	28.0;	46 :	26.0;	47 :	16.0;	48 :	17.0;

Origin  8
	25 :	20.0;	26 :	6.0;	27 :	30.0;	28 :	26.0;	29 :	18.0;
	30 :	9.0;	31 :	21.0;	32 :	20.0;	33 :	24.0;	34 :	34.0;
	35 :	14.0;	36 :	1.0;	37 :	4.0;	38 :	6.0;	39 :	6.0;
	40 :	22.0;	41 :	7.0;	42 :	14.0;	43 :	2.0;	44 :	23.0;
	45 :	7.0;	46 :	34.0;	47 :	11.0;	48 :	21.0;

Origin  9
	25 :	15.0;	26 :	0.0;	27 :	27.0;	28 :	7.0;	29 :	24.0;
	30 :	4.0;	31 :	9.0;	32 :	5.0;	33 :	10.0;	34 :	24.0;
	35 :	3.0;	36 :	28.0;	37 :	32.0;	38 :	26.0;	39 :	30.0;
	40 :	9.0;	41 :	15.0;	42 :	19.0;	43 :	3.0;	44 :	10.0;
	45 :	4.0;	46 :	11.0;	47 :	21.0;	48 :	30.0;

Origin  10
	25 :	18.0;	26 :	4.0;	27 :	10.0;	28 :	19.0;	29 :	9.0;
	30 :	17.0;	31 :	28.0;	32 :	19.0;	33 :	5.0;	34 :	12.0;
	35 :	21.0;	36 :	19.0;	37 :	33.0;	38 :	17.0;	39 :	9.0;
	40 :	21.0;	41 :	14.0;	42 :	14.0;	43 :	15.0;	44 :	4.0;
	45 :	24.0;	46 :	30.0;	47 :	7.0;	48 :	15.0;

Origin  11
	25 :	4.0;	26 :	20.0;	27 :	4.0;	28 :	4.0;	29 :	26.0;
	30 :	30.0;	31 :	1.0;	32 :	29.0;	33 :	15.0;	34 :	23.0;
	35 :	7.0;	36 :	7.0;	37 :	28.0;	38 :	27.0;	39 :	24.0;
	40 :	30.0;	41 :	22.0;	42 :	21.0;	43 :	23.0;	44 :	27.0;
	45 :	20.0;	46 :	33.0;	47 :	28.0;	48 :	6.0;

Origin  12
	25 :	23.0;	26 :	33.0;	27 :	13.0;	28 :	23.0;	29 :	28.0;
	30 :	14.0;	31 :	22.0;	32 :	9.0;	33 :	8.0;	34 :	20.0;
	35 :	28.0;	36 :	27.0;	37 :	23.0;	38 :	18.0;	39 :	3.0;
	40 :	6.0;	41 :	13.0;	42 :	1.0;	43 :	7.0;	44 :	15.0;
	45 :	30.0;	46 :	17.0;	47 :	3.0;	48 :	30.0;

Origin  13
	25 :	28.0;	26 :	22.0;	27 :	28.0;	28 :	11.0;	29 :	20.0;
	30 :	25.0;	31 :	22.0;	32 :	24.0;	33 :	17.0;	34 :	12.0;
	35 :	23.0;	36 :	5.0;	37 :	13.0;	38 :	18.0;	39 :	18.0;
	40 :	22.0;	41 :	23.0;	42 :	17.0;	43 :	33.0;	44 :	3.0;
	45 :	26.0;	46 :	24.0;	47 :	7.0;	48 :	12.0;

Origin  14
	25 :	22.0;	26 :	4.0;	27 :	29.0;	28 :	20.0;	29 :	20.0;
	30 :	26.0;	31 :	0.0;	32 :	17.0;	33 :	6.0;	34 :	11.0;
	35 :	29.0;	36 :	18.0;	37 :	2.0;	38 :	16.0;	39 :	1.0;
	40 :	31.0;	41 :	2.0;	42 :	13.0;	43 :	13.0;	44 :	31.0;
	45 :	25.0;	46 :	27.0;	47 :	10.0;	48 :	25.0;

Origin  15
	25 :	1.0;	26 :	17.0;	27 :	12.0;	28 :	24.0;	29 :	31.0;
	30 :	27.0;	31 :	0.0;	32 :	25.0;	33 :	30.0;	34 :	31.0;
	35 :	30.0;	36 :	25.0;	37 :	13.0;	38 :	10.0;	39 :	13.0;
	40 :	9.0;	41 :	27.0;	42 :	17.0;	43 :	21.0;	44 :	3.0;
	45 :	30.0;	46 :	4.0;	47 :	0.0;	48 :	3.0;

Origin  16
	25 :	17.0;	26 :	11.0;	27 :	8.0;	28 :	10.0;	29 :	22.0;
	30 :	5.0;	31 :	25.0;	32 :	29.0;	33 :	1.0;	34 :	19.0;
	35 :	8.0;	36 :	24.0;	37 :	18.0;	38 :	7.0;	39 :	5.0;
	40 :	22.0;	41 :	32.0;	42 :	4.0;	43 :	25.0;	44 :	15.0;
	45 :	14.0;	46 :	4.0;	47 :	30.0;	48 :	12.0;

Origin  17
	25 :	22.0;	26 :	25.0;	27 :	24.0;	28 :	9.0;	29 :	16.0;
	30 :	9.0;	31 :	4.0;	32 :	7.0;	33 :	32.0;	34 :	32.0;
	35 :	34.0;	36 :	13.0;	37 :	2.0;	38 :	11.0;	39 :	22.0;
	40 :	23.0;	41 :	13.0;	42 :	4.0;	43 :	15.0;	44 :	30.0;
	45 :	32.0;	46 :	32.0;	47 :	13.0;	48 :	21.0;

Origin  18
	25 :	1.0;	26 :	30.0;	27 :	10.0;	28 :	30.0;	29 :	7.0;
	30 :	25.0;	31 :	3.0;	32 :	30.0;	33 :	12.0;	34 :	34.0;
	35 :	31.0;	36 :	25.0;	37 :	2.0;	38 :	32.0;	39 :	19.0;
	40 :	3.0;	41 :	34.0;	42 :	26.0;	43 :	17.0;	44 :	27.0;
	45 :	18.0;	46 :	34.0;	47 :	21.0;	48 :	1.0;

Origin  19
	25 :	10.0;	26 :	16.0;	27 :	30.0;	28 :	21.0;	29 :	12.0;
	30 :	17.0;	31 :	5.0;	32 :	16.0;	33 :	30.0;	34 :	18.0;
	35 :	33.0;	36 :	15.0;	37 :	4.0;	38 :	29.0;	39 :	4.0;
	40 :	13.0;	41 :	27.0;	42 :	6.0;	43 :	11.0;	44 :	9.0;
	45 :	27.0;	46 :	4.0;	47 :	16.0;	48 :	32.0;

Origin  20
	25 :	27.0;	26 :	22.0;	27 :	30.0;	28 :	26.0;	29 :	30.0;
	30 :	24.0;	31 :	10.0;	32 :	4.0;	33 :	8.0;	34 :	32.0;
	35 :	19.0;	36 :	24.0;	37 :	14.0;	38 :	13.0;	39 :	25.0;
	40 :	32.0;	41 :	7.0;	42 :	23.0;	43 :	30.0;	44 :	10.0;
	45 :	31.0;	46 :	6.0;	47 :	7.0;	48 :	4.0;

Origin  21
	25 :	25.0;	26 :	4.0;	27 :	16.0;	28 :	5.0;	29 :	19.0;
	30 :	26.0;	31 :	19.0;	32 :	21.0;	33 :	31.0;	34 :	12.0;
	35 :	11.0;	36 :	25.0;	37 :	27.0;	38 :	12.0;	39 :	16.0;
	40 :	5.0;	41 :	13.0;	42 :	20.0;	43 :	17.0;	44 :	20.0;
	45 :	24.0;	46 :	26.0;	47 :	8.0;	48 :	25.0;

Origin  22
	25 :	17.0;	26 :	6.0;	27 :	25.0;	28 :	28.0;	29 :	20.0;
	30 :	8.0;	31 :	5.0;	32 :	0.0;	33 :	4.0;	34 :	15.0;
	35 :	23.0;	36 :	13.0;	37 :	31.0;	38 :	31.0;	39 :	24.0;
	40 :	4.0;	41 :	24.0;	42 :	14.0;	43 :	1.0;	44 :	28.0;
	45 :	32.0;	46 :	2.0;	47 :	2.0;	48 :	1.0;

Origin  23
	25 :	2.0;	26 :	12.0;	27 :	24.0;	28 :	9.0;	29 :	20.0;
	30 :	10.0;	31 :	20.0;	32 :	21.0;	33 :	4.0;	34 :	25.0;
	35 :	20.0;	36 :	19.0;	37 :	2.0;	38 :	25.0;	39 :	23.0;
	40 :	11.0;	41 :	1.0;	42 :	21.0;	43 :	8.0;	44 :	22.0;
	45 :	16.0;	46 :	33.0;	47 :	8.0;	48 :	22.0;

Origin  24
	25 :	2.0;	26 :	2.0;	27 :	33.0;	28 :	13.0;	29 :	8.0;
	30 :	6.0;	31 :	15.0;	32 :	13.0;	33 :	17.0;	34 :	33.0;
	35 :	7.0;	36 :	11.0;	37 :	18.0;	38 :	34.0;	39 :	15.0;
	40 :	25.0;	41 :	29.0;	42 :	10.0;	43 :	29.0;	44 :	0.0;
	45 :	31.0;	46 :	34.0;	47 :	25.0;	48 :	12.0;