<NUMBER OF ZONES> 48
<NUMBER OF NODES> 1008
<FIRST THRU NODE> 1
<NUMBER OF LINKS> 5336
<ORIGINAL HEADER> 
<END OF METADATA>


~	init_node	term_node	free_flow_time	original_link	time	original_TS_link	user_state	link_type	price_index	;
	49	74	10.0	0	0	0	0	1	0	;
	49	75	8.0	1	0	1	0	1	0	;
	50	73	10.0	2	0	2	0	1	0	;
	50	78	9.0	3	0	3	0	1	0	;
	51	73	8.0	4	0	4	0	1	0	;
	51	76	8.0	5	0	5	0	1	0	;
	51	84	8.0	6	0	6	0	1	0	;
	52	77	6.0	7	0	7	0	1	0	;
	52	83	10.0	8	0	8	0	1	0	;
	52	75	8.0	9	0	9	0	1	0	;
	53	76	6.0	10	0	10	0	1	0	;
	53	78	8.0	11	0	11	0	1	0	;
	53	81	9.0	12	0	12	0	1	0	;
	54	74	9.0	13	0	13	0	1	0	;
	54	77	8.0	14	0	14	0	1	0	;
	54	80	6.0	15	0	15	0	1	0	;
	55	80	7.0	16	0	16	0	1	0	;
	55	90	6.0	17	0	17	0	1	0	;
	56	88	9.0	18	0	18	0	1	0	;
	56	81	14.0	19	0	19	0	1	0	;
	56	78	6.0	20	0	20	0	1	0	;
	56	79	7.0	21	0	21	0	1	0	;
	57	77	9.0	22	0	22	0	1	0	;
	57	80	14.0	23	0	23	0	1	0	;
	57	82	7.0	24	0	24	0	1	0	;
	58	89	12.0	25	0	25	0	1	0	;
	58	81	7.0	26	0	26	0	1	0	;
	58	83	9.0	27	0	27	0	1	0	;
	58	87	10.0	28	0	28	0	1	0	;
	58	88	8.0	29	0	29	0	1	0	;
	59	76	10.0	30	0	30	0	1	0	;
	59	82	9.0	31	0	31	0	1	0	;
	59	84	10.0	32	0	32	0	1	0	;
	59	86	8.0	33	0	33	0	1	0	;
	60	83	10.0	34	0	34	0	1	0	;
	60	85	7.0	35	0	35	0	1	0	;
	60	75	8.0	36	0	36	0	1	0	;
	61	96	8.0	37	0	37	0	1	0	;
	61	84	7.0	38	0	38	0	1	0	;
	62	83	8.0	39	0	39	0	1	0	;
	62	87	9.0	40	0	40	0	1	0	;
	62	95	8.0	41	0	41	0	1	0	;
	63	82	10.0	42	0	42	0	1	0	;
	63	86	9.0	43	0	43	0	1	0	;
	63	91	7.0	44	0	44	0	1	0	;
	63	94	7.0	45	0	45	0	1	0	;
	64	90	7.0	46	0	46	0	1	0	;
	64	89	6.0	47	0	47	0	1	0	;
	64	82	8.0	48	0	48	0	1	0	;
	64	80	9.0	49	0	49	0	1	0	;
	65	82	12.0	50	0	50	0	1	0	;
	65	88	6.0	51	0	51	0	1	0	;
	65	91	6.0	52	0	52	0	1	0	;
	66	79	6.0	53	0	53	0	1	0	;
	66	88	7.0	54	0	54	0	1	0	;
	66	92	8.0	55	0	55	0	1	0	;
	67	92	8.0	56	0	56	0	1	0	;
	67	89	6.0	57	0	57	0	1	0	;
	67	87	7.0	58	0	58	0	1	0	;
	68	90	8.0	59	0	59	0	1	0	;
	68	91	8.0	60	0	60	0	1	0	;
	68	93	10.0	61	0	61	0	1	0	;
	68	94	9.0	62	0	62	0	1	0	;
	69	92	10.0	63	0	63	0	1	0	;
	69	94	6.0	64	0	64	0	1	0	;
	69	96	7.0	65	0	65	0	1	0	;
	70	95	8.0	66	0	66	0	1	0	;
	70	93	6.0	67	0	67	0	1	0	;
	70	87	7.0	68	0	68	0	1	0	;
	70	92	9.0	69	0	69	0	1	0	;
	71	86	8.0	70	0	70	0	1	0	;
	71	94	8.0	71	0	71	0	1	0	;
	71	96	6.0	72	0	72	0	1	0	;
	72	93	7.0	73	0	73	0	1	0	;
	72	85	8.0	74	0	74	0	1	0	;
	72	95	6.0	75	0	75	0	1	0	;
	73	98	10.0	0	1	76	0	1	0	;
	73	99	8.0	1	1	77	0	1	0	;
	74	97	10.0	2	1	78	0	1	0	;
	74	102	9.0	3	1	79	0	1	0	;
	75	97	8.0	4	1	80	0	1	0	;
	75	100	8.0	5	1	81	0	1	0	;
	75	108	8.0	6	1	82	0	1	0	;
	76	101	6.0	7	1	83	0	1	0	;
	76	107	10.0	8	1	84	0	1	0	;
	76	99	8.0	9	1	85	0	1	0	;
	77	100	6.0	10	1	86	0	1	0	;
	77	102	8.0	11	1	87	0	1	0	;
	77	105	9.0	12	1	88	0	1	0	;
	78	98	9.0	13	1	89	0	1	0	;
	78	101	8.0	14	1	90	0	1	0	;
	78	104	6.0	15	1	91	0	1	0	;
	79	104	7.0	16	1	92	0	1	0	;
	79	114	6.0	17	1	93	0	1	0	;
	80	112	9.0	18	1	94	0	1	0	;
	80	105	14.0	19	1	95	0	1	0	;
	80	102	6.0	20	1	96	0	1	0	;
	80	103	7.0	21	1	97	0	1	0	;
	81	101	9.0	22	1	98	0	1	0	;
	81	104	14.0	23	1	99	0	1	0	;
	81	106	7.0	24	1	100	0	1	0	;
	82	113	12.0	25	1	101	0	1	0	;
	82	105	7.0	26	1	102	0	1	0	;
	82	107	9.0	27	1	103	0	1	0	;
	82	111	10.0	28	1	104	0	1	0	;
	82	112	8.0	29	1	105	0	1	0	;
	83	100	10.0	30	1	106	0	1	0	;
	83	106	9.0	31	1	107	0	1	0	;
	83	108	10.0	32	1	108	0	1	0	;
	83	110	8.0	33	1	109	0	1	0	;
	84	107	10.0	34	1	110	0	1	0	;
	84	109	7.0	35	1	111	0	1	0	;
	84	99	8.0	36	1	112	0	1	0	;
	85	120	8.0	37	1	113	0	1	0	;
	85	108	7.0	38	1	114	0	1	0	;
	86	107	8.0	39	1	115	0	1	0	;
	86	111	9.0	40	1	116	0	1	0	;
	86	119	8.0	41	1	117	0	1	0	;
	87	106	10.0	42	1	118	0	1	0	;
	87	110	9.0	43	1	119	0	1	0	;
	87	115	7.0	44	1	120	0	1	0	;
	87	118	7.0	45	1	121	0	1	0	;
	88	114	7.0	46	1	122	0	1	0	;
	88	113	6.0	47	1	123	0	1	0	;
	88	106	8.0	48	1	124	0	1	0	;
	88	104	9.0	49	1	125	0	1	0	;
	89	106	12.0	50	1	126	0	1	0	;
	89	112	6.0	51	1	127	0	1	0	;
	89	115	6.0	52	1	128	0	1	0	;
	90	103	6.0	53	1	129	0	1	0	;
	90	112	7.0	54	1	130	0	1	0	;
	90	116	8.0	55	1	131	0	1	0	;
	91	116	8.0	56	1	132	0	1	0	;
	91	113	6.0	57	1	133	0	1	0	;
	91	111	7.0	58	1	134	0	1	0	;
	92	114	8.0	59	1	135	0	1	0	;
	92	115	8.0	60	1	136	0	1	0	;
	92	117	10.0	61	1	137	0	1	0	;
	92	118	9.0	62	1	138	0	1	0	;
	93	116	10.0	63	1	139	0	1	0	;
	93	118	6.0	64	1	140	0	1	0	;
	93	120	7.0	65	1	141	0	1	0	;
	94	119	8.0	66	1	142	0	1	0	;
	94	117	6.0	67	1	143	0	1	0	;
	94	111	7.0	68	1	144	0	1	0	;
	94	116	9.0	69	1	145	0	1	0	;
	95	110	8.0	70	1	146	0	1	0	;
	95	118	8.0	71	1	147	0	1	0	;
	95	120	6.0	72	1	148	0	1	0	;
	96	117	7.0	73	1	149	0	1	0	;
	96	109	8.0	74	1	150	0	1	0	;
	96	119	6.0	75	1	151	0	1	0	;
	97	122	10.0	0	2	152	0	1	0	;
	97	123	8.0	1	2	153	0	1	0	;
	98	121	10.0	2	2	154	0	1	0	;
	98	126	9.0	3	2	155	0	1	0	;
	99	121	8.0	4	2	156	0	1	0	;
	99	124	8.0	5	2	157	0	1	0	;
	99	132	8.0	6	2	158	0	1	0	;
	100	125	6.0	7	2	159	0	1	0	;
	100	131	10.0	8	2	160	0	1	0	;
	100	123	8.0	9	2	161	0	1	0	;
	101	124	6.0	10	2	162	0	1	0	;
	101	126	8.0	11	2	163	0	1	0	;
	101	129	9.0	12	2	164	0	1	0	;
	102	122	9.0	13	2	165	0	1	0	;
	102	125	8.0	14	2	166	0	1	0	;
	102	128	6.0	15	2	167	0	1	0	;
	103	128	7.0	16	2	168	0	1	0	;
	103	138	6.0	17	2	169	0	1	0	;
	104	136	9.0	18	2	170	0	1	0	;
	104	129	14.0	19	2	171	0	1	0	;
	104	126	6.0	20	2	172	0	1	0	;
	104	127	7.0	21	2	173	0	1	0	;
	105	125	9.0	22	2	174	0	1	0	;
	105	128	14.0	23	2	175	0	1	0	;
	105	130	7.0	24	2	176	0	1	0	;
	106	137	12.0	25	2	177	0	1	0	;
	106	129	7.0	26	2	178	0	1	0	;
	106	131	9.0	27	2	179	0	1	0	;
	106	135	10.0	28	2	180	0	1	0	;
	106	136	8.0	29	2	181	0	1	0	;
	107	124	10.0	30	2	182	0	1	0	;
	107	130	9.0	31	2	183	0	1	0	;
	107	132	10.0	32	2	184	0	1	0	;
	107	134	8.0	33	2	185	0	1	0	;
	108	131	10.0	34	2	186	0	1	0	;
	108	133	7.0	35	2	187	0	1	0	;
	108	123	8.0	36	2	188	0	1	0	;
	109	144	8.0	37	2	189	0	1	0	;
	109	132	7.0	38	2	190	0	1	0	;
	110	131	8.0	39	2	191	0	1	0	;
	110	135	9.0	40	2	192	0	1	0	;
	110	143	8.0	41	2	193	0	1	0	;
	111	130	10.0	42	2	194	0	1	0	;
	111	134	9.0	43	2	195	0	1	0	;
	111	139	7.0	44	2	196	0	1	0	;
	111	142	7.0	45	2	197	0	1	0	;
	112	138	7.0	46	2	198	0	1	0	;
	112	137	6.0	47	2	199	0	1	0	;
	112	130	8.0	48	2	200	0	1	0	;
	112	128	9.0	49	2	201	0	1	0	;
	113	130	12.0	50	2	202	0	1	0	;
	113	136	6.0	51	2	203	0	1	0	;
	113	139	6.0	52	2	204	0	1	0	;
	114	127	6.0	53	2	205	0	1	0	;
	114	136	7.0	54	2	206	0	1	0	;
	114	140	8.0	55	2	207	0	1	0	;
	115	140	8.0	56	2	208	0	1	0	;
	115	137	6.0	57	2	209	0	1	0	;
	115	135	7.0	58	2	210	0	1	0	;
	116	138	8.0	59	2	211	0	1	0	;
	116	139	8.0	60	2	212	0	1	0	;
	116	141	10.0	61	2	213	0	1	0	;
	116	142	9.0	62	2	214	0	1	0	;
	117	140	10.0	63	2	215	0	1	0	;
	117	142	6.0	64	2	216	0	1	0	;
	117	144	7.0	65	2	217	0	1	0	;
	118	143	8.0	66	2	218	0	1	0	;
	118	141	6.0	67	2	219	0	1	0	;
	118	135	7.0	68	2	220	0	1	0	;
	118	140	9.0	69	2	221	0	1	0	;
	119	134	8.0	70	2	222	0	1	0	;
	119	142	8.0	71	2	223	0	1	0	;
	119	144	6.0	72	2	224	0	1	0	;
	120	141	7.0	73	2	225	0	1	0	;
	120	133	8.0	74	2	226	0	1	0	;
	120	143	6.0	75	2	227	0	1	0	;
	121	146	10.0	0	3	228	0	1	0	;
	121	147	8.0	1	3	229	0	1	0	;
	122	145	10.0	2	3	230	0	1	0	;
	122	150	9.0	3	3	231	0	1	0	;
	123	145	8.0	4	3	232	0	1	0	;
	123	148	8.0	5	3	233	0	1	0	;
	123	156	8.0	6	3	234	0	1	0	;
	124	149	6.0	7	3	235	0	1	0	;
	124	155	10.0	8	3	236	0	1	0	;
	124	147	8.0	9	3	237	0	1	0	;
	125	148	6.0	10	3	238	0	1	0	;
	125	150	8.0	11	3	239	0	1	0	;
	125	153	9.0	12	3	240	0	1	0	;
	126	146	9.0	13	3	241	0	1	0	;
	126	149	8.0	14	3	242	0	1	0	;
	126	152	6.0	15	3	243	0	1	0	;
	127	152	7.0	16	3	244	0	1	0	;
	127	162	6.0	17	3	245	0	1	0	;
	128	160	9.0	18	3	246	0	1	0	;
	128	153	14.0	19	3	247	0	1	0	;
	128	150	6.0	20	3	248	0	1	0	;
	128	151	7.0	21	3	249	0	1	0	;
	129	149	9.0	22	3	250	0	1	0	;
	129	152	14.0	23	3	251	0	1	0	;
	129	154	7.0	24	3	252	0	1	0	;
	130	161	12.0	25	3	253	0	1	0	;
	130	153	7.0	26	3	254	0	1	0	;
	130	155	9.0	27	3	255	0	1	0	;
	130	159	10.0	28	3	256	0	1	0	;
	130	160	8.0	29	3	257	0	1	0	;
	131	148	10.0	30	3	258	0	1	0	;
	131	154	9.0	31	3	259	0	1	0	;
	131	156	10.0	32	3	260	0	1	0	;
	131	158	8.0	33	3	261	0	1	0	;
	132	155	10.0	34	3	262	0	1	0	;
	132	157	7.0	35	3	263	0	1	0	;
	132	147	8.0	36	3	264	0	1	0	;
	133	168	8.0	37	3	265	0	1	0	;
	133	156	7.0	38	3	266	0	1	0	;
	134	155	8.0	39	3	267	0	1	0	;
	134	159	9.0	40	3	268	0	1	0	;
	134	167	8.0	41	3	269	0	1	0	;
	135	154	10.0	42	3	270	0	1	0	;
	135	158	9.0	43	3	271	0	1	0	;
	135	163	7.0	44	3	272	0	1	0	;
	135	166	7.0	45	3	273	0	1	0	;
	136	162	7.0	46	3	274	0	1	0	;
	136	161	6.0	47	3	275	0	1	0	;
	136	154	8.0	48	3	276	0	1	0	;
	136	152	9.0	49	3	277	0	1	0	;
	137	154	12.0	50	3	278	0	1	0	;
	137	160	6.0	51	3	279	0	1	0	;
	137	163	6.0	52	3	280	0	1	0	;
	138	151	6.0	53	3	281	0	1	0	;
	138	160	7.0	54	3	282	0	1	0	;
	138	164	8.0	55	3	283	0	1	0	;
	139	164	8.0	56	3	284	0	1	0	;
	139	161	6.0	57	3	285	0	1	0	;
	139	159	7.0	58	3	286	0	1	0	;
	140	162	8.0	59	3	287	0	1	0	;
	140	163	8.0	60	3	288	0	1	0	;
	140	165	10.0	61	3	289	0	1	0	;
	140	166	9.0	62	3	290	0	1	0	;
	141	164	10.0	63	3	291	0	1	0	;
	141	166	6.0	64	3	292	0	1	0	;
	141	168	7.0	65	3	293	0	1	0	;
	142	167	8.0	66	3	294	0	1	0	;
	142	165	6.0	67	3	295	0	1	0	;
	142	159	7.0	68	3	296	0	1	0	;
	142	164	9.0	69	3	297	0	1	0	;
	143	158	8.0	70	3	298	0	1	0	;
	143	166	8.0	71	3	299	0	1	0	;
	143	168	6.0	72	3	300	0	1	0	;
	144	165	7.0	73	3	301	0	1	0	;
	144	157	8.0	74	3	302	0	1	0	;
	144	167	6.0	75	3	303	0	1	0	;
	145	170	10.0	0	4	304	0	1	0	;
	145	171	8.0	1	4	305	0	1	0	;
	146	169	10.0	2	4	306	0	1	0	;
	146	174	9.0	3	4	307	0	1	0	;
	147	169	8.0	4	4	308	0	1	0	;
	147	172	8.0	5	4	309	0	1	0	;
	147	180	8.0	6	4	310	0	1	0	;
	148	173	6.0	7	4	311	0	1	0	;
	148	179	10.0	8	4	312	0	1	0	;
	148	171	8.0	9	4	313	0	1	0	;
	149	172	6.0	10	4	314	0	1	0	;
	149	174	8.0	11	4	315	0	1	0	;
	149	177	9.0	12	4	316	0	1	0	;
	150	170	9.0	13	4	317	0	1	0	;
	150	173	8.0	14	4	318	0	1	0	;
	150	176	6.0	15	4	319	0	1	0	;
	151	176	7.0	16	4	320	0	1	0	;
	151	186	6.0	17	4	321	0	1	0	;
	152	184	9.0	18	4	322	0	1	0	;
	152	177	14.0	19	4	323	0	1	0	;
	152	174	6.0	20	4	324	0	1	0	;
	152	175	7.0	21	4	325	0	1	0	;
	153	173	9.0	22	4	326	0	1	0	;
	153	176	14.0	23	4	327	0	1	0	;
	153	178	7.0	24	4	328	0	1	0	;
	154	185	12.0	25	4	329	0	1	0	;
	154	177	7.0	26	4	330	0	1	0	;
	154	179	9.0	27	4	331	0	1	0	;
	154	183	10.0	28	4	332	0	1	0	;
	154	184	8.0	29	4	333	0	1	0	;
	155	172	10.0	30	4	334	0	1	0	;
	155	178	9.0	31	4	335	0	1	0	;
	155	180	10.0	32	4	336	0	1	0	;
	155	182	8.0	33	4	337	0	1	0	;
	156	179	10.0	34	4	338	0	1	0	;
	156	181	7.0	35	4	339	0	1	0	;
	156	171	8.0	36	4	340	0	1	0	;
	157	192	8.0	37	4	341	0	1	0	;
	157	180	7.0	38	4	342	0	1	0	;
	158	179	8.0	39	4	343	0	1	0	;
	158	183	9.0	40	4	344	0	1	0	;
	158	191	8.0	41	4	345	0	1	0	;
	159	178	10.0	42	4	346	0	1	0	;
	159	182	9.0	43	4	347	0	1	0	;
	159	187	7.0	44	4	348	0	1	0	;
	159	190	7.0	45	4	349	0	1	0	;
	160	186	7.0	46	4	350	0	1	0	;
	160	185	6.0	47	4	351	0	1	0	;
	160	178	8.0	48	4	352	0	1	0	;
	160	176	9.0	49	4	353	0	1	0	;
	161	178	12.0	50	4	354	0	1	0	;
	161	184	6.0	51	4	355	0	1	0	;
	161	187	6.0	52	4	356	0	1	0	;
	162	175	6.0	53	4	357	0	1	0	;
	162	184	7.0	54	4	358	0	1	0	;
	162	188	8.0	55	4	359	0	1	0	;
	163	188	8.0	56	4	360	0	1	0	;
	163	185	6.0	57	4	361	0	1	0	;
	163	183	7.0	58	4	362	0	1	0	;
	164	186	8.0	59	4	363	0	1	0	;
	164	187	8.0	60	4	364	0	1	0	;
	164	189	10.0	61	4	365	0	1	0	;
	164	190	9.0	62	4	366	0	1	0	;
	165	188	10.0	63	4	367	0	1	0	;
	165	190	6.0	64	4	368	0	1	0	;
	165	192	7.0	65	4	369	0	1	0	;
	166	191	8.0	66	4	370	0	1	0	;
	166	189	6.0	67	4	371	0	1	0	;
	166	183	7.0	68	4	372	0	1	0	;
	166	188	9.0	69	4	373	0	1	0	;
	167	182	8.0	70	4	374	0	1	0	;
	167	190	8.0	71	4	375	0	1	0	;
	167	192	6.0	72	4	376	0	1	0	;
	168	189	7.0	73	4	377	0	1	0	;
	168	181	8.0	74	4	378	0	1	0	;
	168	191	6.0	75	4	379	0	1	0	;
	169	194	10.0	0	5	380	0	1	0	;
	169	195	8.0	1	5	381	0	1	0	;
	170	193	10.0	2	5	382	0	1	0	;
	170	198	9.0	3	5	383	0	1	0	;
	171	193	8.0	4	5	384	0	1	0	;
	171	196	8.0	5	5	385	0	1	0	;
	171	204	8.0	6	5	386	0	1	0	;
	172	197	6.0	7	5	387	0	1	0	;
	172	203	10.0	8	5	388	0	1	0	;
	172	195	8.0	9	5	389	0	1	0	;
	173	196	6.0	10	5	390	0	1	0	;
	173	198	8.0	11	5	391	0	1	0	;
	173	201	9.0	12	5	392	0	1	0	;
	174	194	9.0	13	5	393	0	1	0	;
	174	197	8.0	14	5	394	0	1	0	;
	174	200	6.0	15	5	395	0	1	0	;
	175	200	7.0	16	5	396	0	1	0	;
	175	210	6.0	17	5	397	0	1	0	;
	176	208	9.0	18	5	398	0	1	0	;
	176	201	14.0	19	5	399	0	1	0	;
	176	198	6.0	20	5	400	0	1	0	;
	176	199	7.0	21	5	401	0	1	0	;
	177	197	9.0	22	5	402	0	1	0	;
	177	200	14.0	23	5	403	0	1	0	;
	177	202	7.0	24	5	404	0	1	0	;
	178	209	12.0	25	5	405	0	1	0	;
	178	201	7.0	26	5	406	0	1	0	;
	178	203	9.0	27	5	407	0	1	0	;
	178	207	10.0	28	5	408	0	1	0	;
	178	208	8.0	29	5	409	0	1	0	;
	179	196	10.0	30	5	410	0	1	0	;
	179	202	9.0	31	5	411	0	1	0	;
	179	204	10.0	32	5	412	0	1	0	;
	179	206	8.0	33	5	413	0	1	0	;
	180	203	10.0	34	5	414	0	1	0	;
	180	205	7.0	35	5	415	0	1	0	;
	180	195	8.0	36	5	416	0	1	0	;
	181	216	8.0	37	5	417	0	1	0	;
	181	204	7.0	38	5	418	0	1	0	;
	182	203	8.0	39	5	419	0	1	0	;
	182	207	9.0	40	5	420	0	1	0	;
	182	215	8.0	41	5	421	0	1	0	;
	183	202	10.0	42	5	422	0	1	0	;
	183	206	9.0	43	5	423	0	1	0	;
	183	211	7.0	44	5	424	0	1	0	;
	183	214	7.0	45	5	425	0	1	0	;
	184	210	7.0	46	5	426	0	1	0	;
	184	209	6.0	47	5	427	0	1	0	;
	184	202	8.0	48	5	428	0	1	0	;
	184	200	9.0	49	5	429	0	1	0	;
	185	202	12.0	50	5	430	0	1	0	;
	185	208	6.0	51	5	431	0	1	0	;
	185	211	6.0	52	5	432	0	1	0	;
	186	199	6.0	53	5	433	0	1	0	;
	186	208	7.0	54	5	434	0	1	0	;
	186	212	8.0	55	5	435	0	1	0	;
	187	212	8.0	56	5	436	0	1	0	;
	187	209	6.0	57	5	437	0	1	0	;
	187	207	7.0	58	5	438	0	1	0	;
	188	210	8.0	59	5	439	0	1	0	;
	188	211	8.0	60	5	440	0	1	0	;
	188	213	10.0	61	5	441	0	1	0	;
	188	214	9.0	62	5	442	0	1	0	;
	189	212	10.0	63	5	443	0	1	0	;
	189	214	6.0	64	5	444	0	1	0	;
	189	216	7.0	65	5	445	0	1	0	;
	190	215	8.0	66	5	446	0	1	0	;
	190	213	6.0	67	5	447	0	1	0	;
	190	207	7.0	68	5	448	0	1	0	;
	190	212	9.0	69	5	449	0	1	0	;
	191	206	8.0	70	5	450	0	1	0	;
	191	214	8.0	71	5	451	0	1	0	;
	191	216	6.0	72	5	452	0	1	0	;
	192	213	7.0	73	5	453	0	1	0	;
	192	205	8.0	74	5	454	0	1	0	;
	192	215	6.0	75	5	455	0	1	0	;
	193	218	10.0	0	6	456	0	1	0	;
	193	219	8.0	1	6	457	0	1	0	;
	194	217	10.0	2	6	458	0	1	0	;
	194	222	9.0	3	6	459	0	1	0	;
	195	217	8.0	4	6	460	0	1	0	;
	195	220	8.0	5	6	461	0	1	0	;
	195	228	8.0	6	6	462	0	1	0	;
	196	221	6.0	7	6	463	0	1	0	;
	196	227	10.0	8	6	464	0	1	0	;
	196	219	8.0	9	6	465	0	1	0	;
	197	220	6.0	10	6	466	0	1	0	;
	197	222	8.0	11	6	467	0	1	0	;
	197	225	9.0	12	6	468	0	1	0	;
	198	218	9.0	13	6	469	0	1	0	;
	198	221	8.0	14	6	470	0	1	0	;
	198	224	6.0	15	6	471	0	1	0	;
	199	224	7.0	16	6	472	0	1	0	;
	199	234	6.0	17	6	473	0	1	0	;
	200	232	9.0	18	6	474	0	1	0	;
	200	225	14.0	19	6	475	0	1	0	;
	200	222	6.0	20	6	476	0	1	0	;
	200	223	7.0	21	6	477	0	1	0	;
	201	221	9.0	22	6	478	0	1	0	;
	201	224	14.0	23	6	479	0	1	0	;
	201	226	7.0	24	6	480	0	1	0	;
	202	233	12.0	25	6	481	0	1	0	;
	202	225	7.0	26	6	482	0	1	0	;
	202	227	9.0	27	6	483	0	1	0	;
	202	231	10.0	28	6	484	0	1	0	;
	202	232	8.0	29	6	485	0	1	0	;
	203	220	10.0	30	6	486	0	1	0	;
	203	226	9.0	31	6	487	0	1	0	;
	203	228	10.0	32	6	488	0	1	0	;
	203	230	8.0	33	6	489	0	1	0	;
	204	227	10.0	34	6	490	0	1	0	;
	204	229	7.0	35	6	491	0	1	0	;
	204	219	8.0	36	6	492	0	1	0	;
	205	240	8.0	37	6	493	0	1	0	;
	205	228	7.0	38	6	494	0	1	0	;
	206	227	8.0	39	6	495	0	1	0	;
	206	231	9.0	40	6	496	0	1	0	;
	206	239	8.0	41	6	497	0	1	0	;
	207	226	10.0	42	6	498	0	1	0	;
	207	230	9.0	43	6	499	0	1	0	;
	207	235	7.0	44	6	500	0	1	0	;
	207	238	7.0	45	6	501	0	1	0	;
	208	234	7.0	46	6	502	0	1	0	;
	208	233	6.0	47	6	503	0	1	0	;
	208	226	8.0	48	6	504	0	1	0	;
	208	224	9.0	49	6	505	0	1	0	;
	209	226	12.0	50	6	506	0	1	0	;
	209	232	6.0	51	6	507	0	1	0	;
	209	235	6.0	52	6	508	0	1	0	;
	210	223	6.0	53	6	509	0	1	0	;
	210	232	7.0	54	6	510	0	1	0	;
	210	236	8.0	55	6	511	0	1	0	;
	211	236	8.0	56	6	512	0	1	0	;
	211	233	6.0	57	6	513	0	1	0	;
	211	231	7.0	58	6	514	0	1	0	;
	212	234	8.0	59	6	515	0	1	0	;
	212	235	8.0	60	6	516	0	1	0	;
	212	237	10.0	61	6	517	0	1	0	;
	212	238	9.0	62	6	518	0	1	0	;
	213	236	10.0	63	6	519	0	1	0	;
	213	238	6.0	64	6	520	0	1	0	;
	213	240	7.0	65	6	521	0	1	0	;
	214	239	8.0	66	6	522	0	1	0	;
	214	237	6.0	67	6	523	0	1	0	;
	214	231	7.0	68	6	524	0	1	0	;
	214	236	9.0	69	6	525	0	1	0	;
	215	230	8.0	70	6	526	0	1	0	;
	215	238	8.0	71	6	527	0	1	0	;
	215	240	6.0	72	6	528	0	1	0	;
	216	237	7.0	73	6	529	0	1	0	;
	216	229	8.0	74	6	530	0	1	0	;
	216	239	6.0	75	6	531	0	1	0	;
	217	242	10.0	0	7	532	0	1	0	;
	217	243	8.0	1	7	533	0	1	0	;
	218	241	10.0	2	7	534	0	1	0	;
	218	246	9.0	3	7	535	0	1	0	;
	219	241	8.0	4	7	536	0	1	0	;
	219	244	8.0	5	7	537	0	1	0	;
	219	252	8.0	6	7	538	0	1	0	;
	220	245	6.0	7	7	539	0	1	0	;
	220	251	10.0	8	7	540	0	1	0	;
	220	243	8.0	9	7	541	0	1	0	;
	221	244	6.0	10	7	542	0	1	0	;
	221	246	8.0	11	7	543	0	1	0	;
	221	249	9.0	12	7	544	0	1	0	;
	222	242	9.0	13	7	545	0	1	0	;
	222	245	8.0	14	7	546	0	1	0	;
	222	248	6.0	15	7	547	0	1	0	;
	223	248	7.0	16	7	548	0	1	0	;
	223	258	6.0	17	7	549	0	1	0	;
	224	256	9.0	18	7	550	0	1	0	;
	224	249	14.0	19	7	551	0	1	0	;
	224	246	6.0	20	7	552	0	1	0	;
	224	247	7.0	21	7	553	0	1	0	;
	225	245	9.0	22	7	554	0	1	0	;
	225	248	14.0	23	7	555	0	1	0	;
	225	250	7.0	24	7	556	0	1	0	;
	226	257	12.0	25	7	557	0	1	0	;
	226	249	7.0	26	7	558	0	1	0	;
	226	251	9.0	27	7	559	0	1	0	;
	226	255	10.0	28	7	560	0	1	0	;
	226	256	8.0	29	7	561	0	1	0	;
	227	244	10.0	30	7	562	0	1	0	;
	227	250	9.0	31	7	563	0	1	0	;
	227	252	10.0	32	7	564	0	1	0	;
	227	254	8.0	33	7	565	0	1	0	;
	228	251	10.0	34	7	566	0	1	0	;
	228	253	7.0	35	7	567	0	1	0	;
	228	243	8.0	36	7	568	0	1	0	;
	229	264	8.0	37	7	569	0	1	0	;
	229	252	7.0	38	7	570	0	1	0	;
	230	251	8.0	39	7	571	0	1	0	;
	230	255	9.0	40	7	572	0	1	0	;
	230	263	8.0	41	7	573	0	1	0	;
	231	250	10.0	42	7	574	0	1	0	;
	231	254	9.0	43	7	575	0	1	0	;
	231	259	7.0	44	7	576	0	1	0	;
	231	262	7.0	45	7	577	0	1	0	;
	232	258	7.0	46	7	578	0	1	0	;
	232	257	6.0	47	7	579	0	1	0	;
	232	250	8.0	48	7	580	0	1	0	;
	232	248	9.0	49	7	581	0	1	0	;
	233	250	12.0	50	7	582	0	1	0	;
	233	256	6.0	51	7	583	0	1	0	;
	233	259	6.0	52	7	584	0	1	0	;
	234	247	6.0	53	7	585	0	1	0	;
	234	256	7.0	54	7	586	0	1	0	;
	234	260	8.0	55	7	587	0	1	0	;
	235	260	8.0	56	7	588	0	1	0	;
	235	257	6.0	57	7	589	0	1	0	;
	235	255	7.0	58	7	590	0	1	0	;
	236	258	8.0	59	7	591	0	1	0	;
	236	259	8.0	60	7	592	0	1	0	;
	236	261	10.0	61	7	593	0	1	0	;
	236	262	9.0	62	7	594	0	1	0	;
	237	260	10.0	63	7	595	0	1	0	;
	237	262	6.0	64	7	596	0	1	0	;
	237	264	7.0	65	7	597	0	1	0	;
	238	263	8.0	66	7	598	0	1	0	;
	238	261	6.0	67	7	599	0	1	0	;
	238	255	7.0	68	7	600	0	1	0	;
	238	260	9.0	69	7	601	0	1	0	;
	239	254	8.0	70	7	602	0	1	0	;
	239	262	8.0	71	7	603	0	1	0	;
	239	264	6.0	72	7	604	0	1	0	;
	240	261	7.0	73	7	605	0	1	0	;
	240	253	8.0	74	7	606	0	1	0	;
	240	263	6.0	75	7	607	0	1	0	;
	241	266	10.0	0	8	608	0	1	0	;
	241	267	8.0	1	8	609	0	1	0	;
	242	265	10.0	2	8	610	0	1	0	;
	242	270	9.0	3	8	611	0	1	0	;
	243	265	8.0	4	8	612	0	1	0	;
	243	268	8.0	5	8	613	0	1	0	;
	243	276	8.0	6	8	614	0	1	0	;
	244	269	6.0	7	8	615	0	1	0	;
	244	275	10.0	8	8	616	0	1	0	;
	244	267	8.0	9	8	617	0	1	0	;
	245	268	6.0	10	8	618	0	1	0	;
	245	270	8.0	11	8	619	0	1	0	;
	245	273	9.0	12	8	620	0	1	0	;
	246	266	9.0	13	8	621	0	1	0	;
	246	269	8.0	14	8	622	0	1	0	;
	246	272	6.0	15	8	623	0	1	0	;
	247	272	7.0	16	8	624	0	1	0	;
	247	282	6.0	17	8	625	0	1	0	;
	248	280	9.0	18	8	626	0	1	0	;
	248	273	14.0	19	8	627	0	1	0	;
	248	270	6.0	20	8	628	0	1	0	;
	248	271	7.0	21	8	629	0	1	0	;
	249	269	9.0	22	8	630	0	1	0	;
	249	272	14.0	23	8	631	0	1	0	;
	249	274	7.0	24	8	632	0	1	0	;
	250	281	12.0	25	8	633	0	1	0	;
	250	273	7.0	26	8	634	0	1	0	;
	250	275	9.0	27	8	635	0	1	0	;
	250	279	10.0	28	8	636	0	1	0	;
	250	280	8.0	29	8	637	0	1	0	;
	251	268	10.0	30	8	638	0	1	0	;
	251	274	9.0	31	8	639	0	1	0	;
	251	276	10.0	32	8	640	0	1	0	;
	251	278	8.0	33	8	641	0	1	0	;
	252	275	10.0	34	8	642	0	1	0	;
	252	277	7.0	35	8	643	0	1	0	;
	252	267	8.0	36	8	644	0	1	0	;
	253	288	8.0	37	8	645	0	1	0	;
	253	276	7.0	38	8	646	0	1	0	;
	254	275	8.0	39	8	647	0	1	0	;
	254	279	9.0	40	8	648	0	1	0	;
	254	287	8.0	41	8	649	0	1	0	;
	255	274	10.0	42	8	650	0	1	0	;
	255	278	9.0	43	8	651	0	1	0	;
	255	283	7.0	44	8	652	0	1	0	;
	255	286	7.0	45	8	653	0	1	0	;
	256	282	7.0	46	8	654	0	1	0	;
	256	281	6.0	47	8	655	0	1	0	;
	256	274	8.0	48	8	656	0	1	0	;
	256	272	9.0	49	8	657	0	1	0	;
	257	274	12.0	50	8	658	0	1	0	;
	257	280	6.0	51	8	659	0	1	0	;
	257	283	6.0	52	8	660	0	1	0	;
	258	271	6.0	53	8	661	0	1	0	;
	258	280	7.0	54	8	662	0	1	0	;
	258	284	8.0	55	8	663	0	1	0	;
	259	284	8.0	56	8	664	0	1	0	;
	259	281	6.0	57	8	665	0	1	0	;
	259	279	7.0	58	8	666	0	1	0	;
	260	282	8.0	59	8	667	0	1	0	;
	260	283	8.0	60	8	668	0	1	0	;
	260	285	10.0	61	8	669	0	1	0	;
	260	286	9.0	62	8	670	0	1	0	;
	261	284	10.0	63	8	671	0	1	0	;
	261	286	6.0	64	8	672	0	1	0	;
	261	288	7.0	65	8	673	0	1	0	;
	262	287	8.0	66	8	674	0	1	0	;
	262	285	6.0	67	8	675	0	1	0	;
	262	279	7.0	68	8	676	0	1	0	;
	262	284	9.0	69	8	677	0	1	0	;
	263	278	8.0	70	8	678	0	1	0	;
	263	286	8.0	71	8	679	0	1	0	;
	263	288	6.0	72	8	680	0	1	0	;
	264	285	7.0	73	8	681	0	1	0	;
	264	277	8.0	74	8	682	0	1	0	;
	264	287	6.0	75	8	683	0	1	0	;
	265	290	10.0	0	9	684	0	1	0	;
	265	291	8.0	1	9	685	0	1	0	;
	266	289	10.0	2	9	686	0	1	0	;
	266	294	9.0	3	9	687	0	1	0	;
	267	289	8.0	4	9	688	0	1	0	;
	267	292	8.0	5	9	689	0	1	0	;
	267	300	8.0	6	9	690	0	1	0	;
	268	293	6.0	7	9	691	0	1	0	;
	268	299	10.0	8	9	692	0	1	0	;
	268	291	8.0	9	9	693	0	1	0	;
	269	292	6.0	10	9	694	0	1	0	;
	269	294	8.0	11	9	695	0	1	0	;
	269	297	9.0	12	9	696	0	1	0	;
	270	290	9.0	13	9	697	0	1	0	;
	270	293	8.0	14	9	698	0	1	0	;
	270	296	6.0	15	9	699	0	1	0	;
	271	296	7.0	16	9	700	0	1	0	;
	271	306	6.0	17	9	701	0	1	0	;
	272	304	9.0	18	9	702	0	1	0	;
	272	297	14.0	19	9	703	0	1	0	;
	272	294	6.0	20	9	704	0	1	0	;
	272	295	7.0	21	9	705	0	1	0	;
	273	293	9.0	22	9	706	0	1	0	;
	273	296	14.0	23	9	707	0	1	0	;
	273	298	7.0	24	9	708	0	1	0	;
	274	305	12.0	25	9	709	0	1	0	;
	274	297	7.0	26	9	710	0	1	0	;
	274	299	9.0	27	9	711	0	1	0	;
	274	303	10.0	28	9	712	0	1	0	;
	274	304	8.0	29	9	713	0	1	0	;
	275	292	10.0	30	9	714	0	1	0	;
	275	298	9.0	31	9	715	0	1	0	;
	275	300	10.0	32	9	716	0	1	0	;
	275	302	8.0	33	9	717	0	1	0	;
	276	299	10.0	34	9	718	0	1	0	;
	276	301	7.0	35	9	719	0	1	0	;
	276	291	8.0	36	9	720	0	1	0	;
	277	312	8.0	37	9	721	0	1	0	;
	277	300	7.0	38	9	722	0	1	0	;
	278	299	8.0	39	9	723	0	1	0	;
	278	303	9.0	40	9	724	0	1	0	;
	278	311	8.0	41	9	725	0	1	0	;
	279	298	10.0	42	9	726	0	1	0	;
	279	302	9.0	43	9	727	0	1	0	;
	279	307	7.0	44	9	728	0	1	0	;
	279	310	7.0	45	9	729	0	1	0	;
	280	306	7.0	46	9	730	0	1	0	;
	280	305	6.0	47	9	731	0	1	0	;
	280	298	8.0	48	9	732	0	1	0	;
	280	296	9.0	49	9	733	0	1	0	;
	281	298	12.0	50	9	734	0	1	0	;
	281	304	6.0	51	9	735	0	1	0	;
	281	307	6.0	52	9	736	0	1	0	;
	282	295	6.0	53	9	737	0	1	0	;
	282	304	7.0	54	9	738	0	1	0	;
	282	308	8.0	55	9	739	0	1	0	;
	283	308	8.0	56	9	740	0	1	0	;
	283	305	6.0	57	9	741	0	1	0	;
	283	303	7.0	58	9	742	0	1	0	;
	284	306	8.0	59	9	743	0	1	0	;
	284	307	8.0	60	9	744	0	1	0	;
	284	309	10.0	61	9	745	0	1	0	;
	284	310	9.0	62	9	746	0	1	0	;
	285	308	10.0	63	9	747	0	1	0	;
	285	310	6.0	64	9	748	0	1	0	;
	285	312	7.0	65	9	749	0	1	0	;
	286	311	8.0	66	9	750	0	1	0	;
	286	309	6.0	67	9	751	0	1	0	;
	286	303	7.0	68	9	752	0	1	0	;
	286	308	9.0	69	9	753	0	1	0	;
	287	302	8.0	70	9	754	0	1	0	;
	287	310	8.0	71	9	755	0	1	0	;
	287	312	6.0	72	9	756	0	1	0	;
	288	309	7.0	73	9	757	0	1	0	;
	288	301	8.0	74	9	758	0	1	0	;
	288	311	6.0	75	9	759	0	1	0	;
	289	314	10.0	0	10	760	0	1	0	;
	289	315	8.0	1	10	761	0	1	0	;
	290	313	10.0	2	10	762	0	1	0	;
	290	318	9.0	3	10	763	0	1	0	;
	291	313	8.0	4	10	764	0	1	0	;
	291	316	8.0	5	10	765	0	1	0	;
	291	324	8.0	6	10	766	0	1	0	;
	292	317	6.0	7	10	767	0	1	0	;
	292	323	10.0	8	10	768	0	1	0	;
	292	315	8.0	9	10	769	0	1	0	;
	293	316	6.0	10	10	770	0	1	0	;
	293	318	8.0	11	10	771	0	1	0	;
	293	321	9.0	12	10	772	0	1	0	;
	294	314	9.0	13	10	773	0	1	0	;
	294	317	8.0	14	10	774	0	1	0	;
	294	320	6.0	15	10	775	0	1	0	;
	295	320	7.0	16	10	776	0	1	0	;
	295	330	6.0	17	10	777	0	1	0	;
	296	328	9.0	18	10	778	0	1	0	;
	296	321	14.0	19	10	779	0	1	0	;
	296	318	6.0	20	10	780	0	1	0	;
	296	319	7.0	21	10	781	0	1	0	;
	297	317	9.0	22	10	782	0	1	0	;
	297	320	14.0	23	10	783	0	1	0	;
	297	322	7.0	24	10	784	0	1	0	;
	298	329	12.0	25	10	785	0	1	0	;
	298	321	7.0	26	10	786	0	1	0	;
	298	323	9.0	27	10	787	0	1	0	;
	298	327	10.0	28	10	788	0	1	0	;
	298	328	8.0	29	10	789	0	1	0	;
	299	316	10.0	30	10	790	0	1	0	;
	299	322	9.0	31	10	791	0	1	0	;
	299	324	10.0	32	10	792	0	1	0	;
	299	326	8.0	33	10	793	0	1	0	;
	300	323	10.0	34	10	794	0	1	0	;
	300	325	7.0	35	10	795	0	1	0	;
	300	315	8.0	36	10	796	0	1	0	;
	301	336	8.0	37	10	797	0	1	0	;
	301	324	7.0	38	10	798	0	1	0	;
	302	323	8.0	39	10	799	0	1	0	;
	302	327	9.0	40	10	800	0	1	0	;
	302	335	8.0	41	10	801	0	1	0	;
	303	322	10.0	42	10	802	0	1	0	;
	303	326	9.0	43	10	803	0	1	0	;
	303	331	7.0	44	10	804	0	1	0	;
	303	334	7.0	45	10	805	0	1	0	;
	304	330	7.0	46	10	806	0	1	0	;
	304	329	6.0	47	10	807	0	1	0	;
	304	322	8.0	48	10	808	0	1	0	;
	304	320	9.0	49	10	809	0	1	0	;
	305	322	12.0	50	10	810	0	1	0	;
	305	328	6.0	51	10	811	0	1	0	;
	305	331	6.0	52	10	812	0	1	0	;
	306	319	6.0	53	10	813	0	1	0	;
	306	328	7.0	54	10	814	0	1	0	;
	306	332	8.0	55	10	815	0	1	0	;
	307	332	8.0	56	10	816	0	1	0	;
	307	329	6.0	57	10	817	0	1	0	;
	307	327	7.0	58	10	818	0	1	0	;
	308	330	8.0	59	10	819	0	1	0	;
	308	331	8.0	60	10	820	0	1	0	;
	308	333	10.0	61	10	821	0	1	0	;
	308	334	9.0	62	10	822	0	1	0	;
	309	332	10.0	63	10	823	0	1	0	;
	309	334	6.0	64	10	824	0	1	0	;
	309	336	7.0	65	10	825	0	1	0	;
	310	335	8.0	66	10	826	0	1	0	;
	310	333	6.0	67	10	827	0	1	0	;
	310	327	7.0	68	10	828	0	1	0	;
	310	332	9.0	69	10	829	0	1	0	;
	311	326	8.0	70	10	830	0	1	0	;
	311	334	8.0	71	10	831	0	1	0	;
	311	336	6.0	72	10	832	0	1	0	;
	312	333	7.0	73	10	833	0	1	0	;
	312	325	8.0	74	10	834	0	1	0	;
	312	335	6.0	75	10	835	0	1	0	;
	313	338	10.0	0	11	836	0	1	0	;
	313	339	8.0	1	11	837	0	1	0	;
	314	337	10.0	2	11	838	0	1	0	;
	314	342	9.0	3	11	839	0	1	0	;
	315	337	8.0	4	11	840	0	1	0	;
	315	340	8.0	5	11	841	0	1	0	;
	315	348	8.0	6	11	842	0	1	0	;
	316	341	6.0	7	11	843	0	1	0	;
	316	347	10.0	8	11	844	0	1	0	;
	316	339	8.0	9	11	845	0	1	0	;
	317	340	6.0	10	11	846	0	1	0	;
	317	342	8.0	11	11	847	0	1	0	;
	317	345	9.0	12	11	848	0	1	0	;
	318	338	9.0	13	11	849	0	1	0	;
	318	341	8.0	14	11	850	0	1	0	;
	318	344	6.0	15	11	851	0	1	0	;
	319	344	7.0	16	11	852	0	1	0	;
	319	354	6.0	17	11	853	0	1	0	;
	320	352	9.0	18	11	854	0	1	0	;
	320	345	14.0	19	11	855	0	1	0	;
	320	342	6.0	20	11	856	0	1	0	;
	320	343	7.0	21	11	857	0	1	0	;
	321	341	9.0	22	11	858	0	1	0	;
	321	344	14.0	23	11	859	0	1	0	;
	321	346	7.0	24	11	860	0	1	0	;
	322	353	12.0	25	11	861	0	1	0	;
	322	345	7.0	26	11	862	0	1	0	;
	322	347	9.0	27	11	863	0	1	0	;
	322	351	10.0	28	11	864	0	1	0	;
	322	352	8.0	29	11	865	0	1	0	;
	323	340	10.0	30	11	866	0	1	0	;
	323	346	9.0	31	11	867	0	1	0	;
	323	348	10.0	32	11	868	0	1	0	;
	323	350	8.0	33	11	869	0	1	0	;
	324	347	10.0	34	11	870	0	1	0	;
	324	349	7.0	35	11	871	0	1	0	;
	324	339	8.0	36	11	872	0	1	0	;
	325	360	8.0	37	11	873	0	1	0	;
	325	348	7.0	38	11	874	0	1	0	;
	326	347	8.0	39	11	875	0	1	0	;
	326	351	9.0	40	11	876	0	1	0	;
	326	359	8.0	41	11	877	0	1	0	;
	327	346	10.0	42	11	878	0	1	0	;
	327	350	9.0	43	11	879	0	1	0	;
	327	355	7.0	44	11	880	0	1	0	;
	327	358	7.0	45	11	881	0	1	0	;
	328	354	7.0	46	11	882	0	1	0	;
	328	353	6.0	47	11	883	0	1	0	;
	328	346	8.0	48	11	884	0	1	0	;
	328	344	9.0	49	11	885	0	1	0	;
	329	346	12.0	50	11	886	0	1	0	;
	329	352	6.0	51	11	887	0	1	0	;
	329	355	6.0	52	11	888	0	1	0	;
	330	343	6.0	53	11	889	0	1	0	;
	330	352	7.0	54	11	890	0	1	0	;
	330	356	8.0	55	11	891	0	1	0	;
	331	356	8.0	56	11	892	0	1	0	;
	331	353	6.0	57	11	893	0	1	0	;
	331	351	7.0	58	11	894	0	1	0	;
	332	354	8.0	59	11	895	0	1	0	;
	332	355	8.0	60	11	896	0	1	0	;
	332	357	10.0	61	11	897	0	1	0	;
	332	358	9.0	62	11	898	0	1	0	;
	333	356	10.0	63	11	899	0	1	0	;
	333	358	6.0	64	11	900	0	1	0	;
	333	360	7.0	65	11	901	0	1	0	;
	334	359	8.0	66	11	902	0	1	0	;
	334	357	6.0	67	11	903	0	1	0	;
	334	351	7.0	68	11	904	0	1	0	;
	334	356	9.0	69	11	905	0	1	0	;
	335	350	8.0	70	11	906	0	1	0	;
	335	358	8.0	71	11	907	0	1	0	;
	335	360	6.0	72	11	908	0	1	0	;
	336	357	7.0	73	11	909	0	1	0	;
	336	349	8.0	74	11	910	0	1	0	;
	336	359	6.0	75	11	911	0	1	0	;
	337	362	10.0	0	12	912	0	1	0	;
	337	363	8.0	1	12	913	0	1	0	;
	338	361	10.0	2	12	914	0	1	0	;
	338	366	9.0	3	12	915	0	1	0	;
	339	361	8.0	4	12	916	0	1	0	;
	339	364	8.0	5	12	917	0	1	0	;
	339	372	8.0	6	12	918	0	1	0	;
	340	365	6.0	7	12	919	0	1	0	;
	340	371	10.0	8	12	920	0	1	0	;
	340	363	8.0	9	12	921	0	1	0	;
	341	364	6.0	10	12	922	0	1	0	;
	341	366	8.0	11	12	923	0	1	0	;
	341	369	9.0	12	12	924	0	1	0	;
	342	362	9.0	13	12	925	0	1	0	;
	342	365	8.0	14	12	926	0	1	0	;
	342	368	6.0	15	12	927	0	1	0	;
	343	368	7.0	16	12	928	0	1	0	;
	343	378	6.0	17	12	929	0	1	0	;
	344	376	9.0	18	12	930	0	1	0	;
	344	369	14.0	19	12	931	0	1	0	;
	344	366	6.0	20	12	932	0	1	0	;
	344	367	7.0	21	12	933	0	1	0	;
	345	365	9.0	22	12	934	0	1	0	;
	345	368	14.0	23	12	935	0	1	0	;
	345	370	7.0	24	12	936	0	1	0	;
	346	377	12.0	25	12	937	0	1	0	;
	346	369	7.0	26	12	938	0	1	0	;
	346	371	9.0	27	12	939	0	1	0	;
	346	375	10.0	28	12	940	0	1	0	;
	346	376	8.0	29	12	941	0	1	0	;
	347	364	10.0	30	12	942	0	1	0	;
	347	370	9.0	31	12	943	0	1	0	;
	347	372	10.0	32	12	944	0	1	0	;
	347	374	8.0	33	12	945	0	1	0	;
	348	371	10.0	34	12	946	0	1	0	;
	348	373	7.0	35	12	947	0	1	0	;
	348	363	8.0	36	12	948	0	1	0	;
	349	384	8.0	37	12	949	0	1	0	;
	349	372	7.0	38	12	950	0	1	0	;
	350	371	8.0	39	12	951	0	1	0	;
	350	375	9.0	40	12	952	0	1	0	;
	350	383	8.0	41	12	953	0	1	0	;
	351	370	10.0	42	12	954	0	1	0	;
	351	374	9.0	43	12	955	0	1	0	;
	351	379	7.0	44	12	956	0	1	0	;
	351	382	7.0	45	12	957	0	1	0	;
	352	378	7.0	46	12	958	0	1	0	;
	352	377	6.0	47	12	959	0	1	0	;
	352	370	8.0	48	12	960	0	1	0	;
	352	368	9.0	49	12	961	0	1	0	;
	353	370	12.0	50	12	962	0	1	0	;
	353	376	6.0	51	12	963	0	1	0	;
	353	379	6.0	52	12	964	0	1	0	;
	354	367	6.0	53	12	965	0	1	0	;
	354	376	7.0	54	12	966	0	1	0	;
	354	380	8.0	55	12	967	0	1	0	;
	355	380	8.0	56	12	968	0	1	0	;
	355	377	6.0	57	12	969	0	1	0	;
	355	375	7.0	58	12	970	0	1	0	;
	356	378	8.0	59	12	971	0	1	0	;
	356	379	8.0	60	12	972	0	1	0	;
	356	381	10.0	61	12	973	0	1	0	;
	356	382	9.0	62	12	974	0	1	0	;
	357	380	10.0	63	12	975	0	1	0	;
	357	382	6.0	64	12	976	0	1	0	;
	357	384	7.0	65	12	977	0	1	0	;
	358	383	8.0	66	12	978	0	1	0	;
	358	381	6.0	67	12	979	0	1	0	;
	358	375	7.0	68	12	980	0	1	0	;
	358	380	9.0	69	12	981	0	1	0	;
	359	374	8.0	70	12	982	0	1	0	;
	359	382	8.0	71	12	983	0	1	0	;
	359	384	6.0	72	12	984	0	1	0	;
	360	381	7.0	73	12	985	0	1	0	;
	360	373	8.0	74	12	986	0	1	0	;
	360	383	6.0	75	12	987	0	1	0	;
	361	386	10.0	0	13	988	0	1	0	;
	361	387	8.0	1	13	989	0	1	0	;
	362	385	10.0	2	13	990	0	1	0	;
	362	390	9.0	3	13	991	0	1	0	;
	363	385	8.0	4	13	992	0	1	0	;
	363	388	8.0	5	13	993	0	1	0	;