<NUMBER OF ZONES> 8
<TOTAL OD FLOW> 1000.0
<END OF METADATA>



Origin  1
	5 :	4.95152006035822;	6 :	82.85504128636155;	7 :	67.2003120278044;	8 :	37.31554617193958;

Origin  2
	5 :	114.56491758022058;	6 :	65.90857761996244;	7 :	7.484063194935493;	8 :	10.812102333136249;

Origin  3
	5 :	50.703723461196645;	6 :	61.84762141755018;	7 :	71.20904508927855;	8 :	95.10167293434792;

Origin  4
	5 :	1.8070496657334632;	6 :	119.25866930079711;	7 :	110.88134963418021;	8 :	98.09878822219746;