<NUMBER OF ZONES> 8
<NUMBER OF NODES> 168
<FIRST THRU NODE> 1
<NUMBER OF LINKS> 708
<ORIGINAL HEADER> 
<END OF METADATA>


~	init_node	term_node	free_flow_time	original_link	time	original_TS_link	user_state	link_type	price_index	;
	9	14	5.5	0	0	0	0	1	0	;
	9	15	7.0	1	0	1	0	1	0	;
	10	15	5.0	2	0	2	0	1	0	;
	10	16	9.0	3	0	3	0	1	0	;
	11	16	7.5	4	0	4	0	1	0	;
	10	13	5.5	5	0	5	0	1	0	;
	11	13	7.0	6	0	6	0	1	0	;
	11	14	5.0	7	0	7	0	1	0	;
	12	14	9.0	8	0	8	0	1	0	;
	12	15	7.5	9	0	9	0	1	0	;
	13	18	5.5	0	1	10	0	1	0	;
	13	19	7.0	1	1	11	0	1	0	;
	14	19	5.0	2	1	12	0	1	0	;
	14	20	9.0	3	1	13	0	1	0	;
	15	20	7.5	4	1	14	0	1	0	;
	14	17	5.5	5	1	15	0	1	0	;
	15	17	7.0	6	1	16	0	1	0	;
	15	18	5.0	7	1	17	0	1	0	;
	16	18	9.0	8	1	18	0	1	0	;
	16	19	7.5	9	1	19	0	1	0	;
	17	22	5.5	0	2	20	0	1	0	;
	17	23	7.0	1	2	21	0	1	0	;
	18	23	5.0	2	2	22	0	1	0	;
	18	24	9.0	3	2	23	0	1	0	;
	19	24	7.5	4	2	24	0	1	0	;
	18	21	5.5	5	2	25	0	1	0	;
	19	21	7.0	6	2	26	0	1	0	;
	19	22	5.0	7	2	27	0	1	0	;
	20	22	9.0	8	2	28	0	1	0	;
	20	23	7.5	9	2	29	0	1	0	;
	21	26	5.5	0	3	30	0	1	0	;
	21	27	7.0	1	3	31	0	1	0	;
	22	27	5.0	2	3	32	0	1	0	;
	22	28	9.0	3	3	33	0	1	0	;
	23	28	7.5	4	3	34	0	1	0	;
	22	25	5.5	5	3	35	0	1	0	;
	23	25	7.0	6	3	36	0	1	0	;
	23	26	5.0	7	3	37	0	1	0	;
	24	26	9.0	8	3	38	0	1	0	;
	24	27	7.5	9	3	39	0	1	0	;
	25	30	5.5	0	4	40	0	1	0	;
	25	31	7.0	1	4	41	0	1	0	;
	26	31	5.0	2	4	42	0	1	0	;
	26	32	9.0	3	4	43	0	1	0	;
	27	32	7.5	4	4	44	0	1	0	;
	26	29	5.5	5	4	45	0	1	0	;
	27	29	7.0	6	4	46	0	1	0	;
	27	30	5.0	7	4	47	0	1	0	;
	28	30	9.0	8	4	48	0	1	0	;
	28	31	7.5	9	4	49	0	1	0	;
	29	34	5.5	0	5	50	0	1	0	;
	29	35	7.0	1	5	51	0	1	0	;
	30	35	5.0	2	5	52	0	1	0	;
	30	36	9.0	3	5	53	0	1	0	;
	31	36	7.5	4	5	54	0	1	0	;
	30	33	5.5	5	5	55	0	1	0	;
	31	33	7.0	6	5	56	0	1	0	;
	31	34	5.0	7	5	57	0	1	0	;
	32	34	9.0	8	5	58	0	1	0	;
	32	35	7.5	9	5	59	0	1	0	;
	33	38	5.5	0	6	60	0	1	0	;
	33	39	7.0	1	6	61	0	1	0	;
	34	39	5.0	2	6	62	0	1	0	;
	34	40	9.0	3	6	63	0	1	0	;
	35	40	7.5	4	6	64	0	1	0	;
	34	37	5.5	5	6	65	0	1	0	;
	35	37	7.0	6	6	66	0	1	0	;
	35	38	5.0	7	6	67	0	1	0	;
	36	38	9.0	8	6	68	0	1	0	;
	36	39	7.5	9	6	69	0	1	0	;
	37	42	5.5	0	7	70	0	1	0	;
	37	43	7.0	1	7	71	0	1	0	;
	38	43	5.0	2	7	72	0	1	0	;
	38	44	9.0	3	7	73	0	1	0	;
	39	44	7.5	4	7	74	0	1	0	;
	38	41	5.5	5	7	75	0	1	0	;
	39	41	7.0	6	7	76	0	1	0	;
	39	42	5.0	7	7	77	0	1	0	;
	40	42	9.0	8	7	78	0	1	0	;
	40	43	7.5	9	7	79	0	1	0	;
	41	46	5.5	0	8	80	0	1	0	;
	41	47	7.0	1	8	81	0	1	0	;
	42	47	5.0	2	8	82	0	1	0	;
	42	48	9.0	3	8	83	0	1	0	;
	43	48	7.5	4	8	84	0	1	0	;
	42	45	5.5	5	8	85	0	1	0	;
	43	45	7.0	6	8	86	0	1	0	;
	43	46	5.0	7	8	87	0	1	0	;
	44	46	9.0	8	8	88	0	1	0	;
	44	47	7.5	9	8	89	0	1	0	;
	45	50	5.5	0	9	90	0	1	0	;
	45	51	7.0	1	9	91	0	1	0	;
	46	51	5.0	2	9	92	0	1	0	;
	46	52	9.0	3	9	93	0	1	0	;
	47	52	7.5	4	9	94	0	1	0	;
	46	49	5.5	5	9	95	0	1	0	;
	47	49	7.0	6	9	96	0	1	0	;
	47	50	5.0	7	9	97	0	1	0	;
	48	50	9.0	8	9	98	0	1	0	;
	48	51	7.5	9	9	99	0	1	0	;
	49	54	5.5	0	10	100	0	1	0	;
	49	55	7.0	1	10	101	0	1	0	;
	50	55	5.0	2	10	102	0	1	0	;
	50	56	9.0	3	10	103	0	1	0	;
	51	56	7.5	4	10	104	0	1	0	;
	50	53	5.5	5	10	105	0	1	0	;
	51	53	7.0	6	10	106	0	1	0	;
	51	54	5.0	7	10	107	0	1	0	;
	52	54	9.0	8	10	108	0	1	0	;
	52	55	7.5	9	10	109	0	1	0	;
	53	58	5.5	0	11	110	0	1	0	;
	53	59	7.0	1	11	111	0	1	0	;
	54	59	5.0	2	11	112	0	1	0	;
	54	60	9.0	3	11	113	0	1	0	;
	55	60	7.5	4	11	114	0	1	0	;
	54	57	5.5	5	11	115	0	1	0	;
	55	57	7.0	6	11	116	0	1	0	;
	55	58	5.0	7	11	117	0	1	0	;
	56	58	9.0	8	11	118	0	1	0	;
	56	59	7.5	9	11	119	0	1	0	;
	57	62	5.5	0	12	120	0	1	0	;
	57	63	7.0	1	12	121	0	1	0	;
	58	63	5.0	2	12	122	0	1	0	;
	58	64	9.0	3	12	123	0	1	0	;
	59	64	7.5	4	12	124	0	1	0	;
	58	61	5.5	5	12	125	0	1	0	;
	59	61	7.0	6	12	126	0	1	0	;
	59	62	5.0	7	12	127	0	1	0	;
	60	62	9.0	8	12	128	0	1	0	;
	60	63	7.5	9	12	129	0	1	0	;
	61	66	5.5	0	13	130	0	1	0	;
	61	67	7.0	1	13	131	0	1	0	;
	62	67	5.0	2	13	132	0	1	0	;
	62	68	9.0	3	13	133	0	1	0	;
	63	68	7.5	4	13	134	0	1	0	;
	62	65	5.5	5	13	135	0	1	0	;
	63	65	7.0	6	13	136	0	1	0	;
	63	66	5.0	7	13	137	0	1	0	;
	64	66	9.0	8	13	138	0	1	0	;
	64	67	7.5	9	13	139	0	1	0	;
	65	70	5.5	0	14	140	0	1	0	;
	65	71	7.0	1	14	141	0	1	0	;
	66	71	5.0	2	14	142	0	1	0	;
	66	72	9.0	3	14	143	0	1	0	;
	67	72	7.5	4	14	144	0	1	0	;
	66	69	5.5	5	14	145	0	1	0	;
	67	69	7.0	6	14	146	0	1	0	;
	67	70	5.0	7	14	147	0	1	0	;
	68	70	9.0	8	14	148	0	1	0	;
	68	71	7.5	9	14	149	0	1	0	;
	69	74	5.5	0	15	150	0	1	0	;
	69	75	7.0	1	15	151	0	1	0	;
	70	75	5.0	2	15	152	0	1	0	;
	70	76	9.0	3	15	153	0	1	0	;
	71	76	7.5	4	15	154	0	1	0	;
	70	73	5.5	5	15	155	0	1	0	;
	71	73	7.0	6	15	156	0	1	0	;
	71	74	5.0	7	15	157	0	1	0	;
	72	74	9.0	8	15	158	0	1	0	;
	72	75	7.5	9	15	159	0	1	0	;
	73	78	5.5	0	16	160	0	1	0	;
	73	79	7.0	1	16	161	0	1	0	;
	74	79	5.0	2	16	162	0	1	0	;
	74	80	9.0	3	16	163	0	1	0	;
	75	80	7.5	4	16	164	0	1	0	;
	74	77	5.5	5	16	165	0	1	0	;
	75	77	7.0	6	16	166	0	1	0	;
	75	78	5.0	7	16	167	0	1	0	;
	76	78	9.0	8	16	168	0	1	0	;
	76	79	7.5	9	16	169	0	1	0	;
	77	82	5.5	0	17	170	0	1	0	;
	77	83	7.0	1	17	171	0	1	0	;
	78	83	5.0	2	17	172	0	1	0	;
	78	84	9.0	3	17	173	0	1	0	;
	79	84	7.5	4	17	174	0	1	0	;
	78	81	5.5	5	17	175	0	1	0	;
	79	81	7.0	6	17	176	0	1	0	;
	79	82	5.0	7	17	177	0	1	0	;
	80	82	9.0	8	17	178	0	1	0	;
	80	83	7.5	9	17	179	0	1	0	;
	81	86	5.5	0	18	180	0	1	0	;
	81	87	7.0	1	18	181	0	1	0	;
	82	87	5.0	2	18	182	0	1	0	;
	82	88	9.0	3	18	183	0	1	0	;
	83	88	7.5	4	18	184	0	1	0	;
	82	85	5.5	5	18	185	0	1	0	;
	83	85	7.0	6	18	186	0	1	0	;
	83	86	5.0	7	18	187	0	1	0	;
	84	86	9.0	8	18	188	0	1	0	;
	84	87	7.5	9	18	189	0	1	0	;
	89	94	1.5	0	0	0	1	1	1	;
	89	95	3.0	1	0	1	1	1	1	;
	90	95	1.0	2	0	2	1	1	1	;
	90	96	5.0	3	0	3	1	1	1	;
	91	96	3.5	4	0	4	1	1	1	;
	90	93	1.5	5	0	5	1	1	1	;
	91	93	3.0	6	0	6	1	1	1	;
	91	94	1.0	7	0	7	1	1	1	;
	92	94	5.0	8	0	8	1	1	1	;
	92	95	3.5	9	0	9	1	1	1	;
	93	98	1.5	0	1	10	1	1	1	;
	93	99	3.0	1	1	11	1	1	1	;
	94	99	1.0	2	1	12	1	1	1	;
	94	100	5.0	3	1	13	1	1	1	;
	95	100	3.5	4	1	14	1	1	1	;
	94	97	1.5	5	1	15	1	1	1	;
	95	97	3.0	6	1	16	1	1	1	;
	95	98	1.0	7	1	17	1	1	1	;
	96	98	5.0	8	1	18	1	1	1	;
	96	99	3.5	9	1	19	1	1	1	;
	97	102	1.5	0	2	20	1	1	1	;
	97	103	3.0	1	2	21	1	1	1	;
	98	103	1.0	2	2	22	1	1	1	;
	98	104	5.0	3	2	23	1	1	1	;
	99	104	3.5	4	2	24	1	1	1	;
	98	101	1.5	5	2	25	1	1	1	;
	99	101	3.0	6	2	26	1	1	1	;
	99	102	1.0	7	2	27	1	1	1	;
	100	102	5.0	8	2	28	1	1	1	;
	100	103	3.5	9	2	29	1	1	1	;
	101	106	1.5	0	3	30	1	1	1	;
	101	107	3.0	1	3	31	1	1	1	;
	102	107	1.0	2	3	32	1	1	1	;
	102	108	5.0	3	3	33	1	1	1	;
	103	108	3.5	4	3	34	1	1	1	;
	102	105	1.5	5	3	35	1	1	1	;
	103	105	3.0	6	3	36	1	1	1	;
	103	106	1.0	7	3	37	1	1	1	;
	104	106	5.0	8	3	38	1	1	1	;
	104	107	3.5	9	3	39	1	1	1	;
	105	110	1.5	0	4	40	1	1	1	;
	105	111	3.0	1	4	41	1	1	1	;
	106	111	1.0	2	4	42	1	1	1	;
	106	112	5.0	3	4	43	1	1	1	;
	107	112	3.5	4	4	44	1	1	1	;
	106	109	1.5	5	4	45	1	1	1	;
	107	109	3.0	6	4	46	1	1	1	;
	107	110	1.0	7	4	47	1	1	1	;
	108	110	5.0	8	4	48	1	1	1	;
	108	111	3.5	9	4	49	1	1	1	;
	109	114	1.5	0	5	50	1	1	1	;
	109	115	3.0	1	5	51	1	1	1	;
	110	115	1.0	2	5	52	1	1	1	;
	110	116	5.0	3	5	53	1	1	1	;
	111	116	3.5	4	5	54	1	1	1	;
	110	113	1.5	5	5	55	1	1	1	;
	111	113	3.0	6	5	56	1	1	1	;
	111	114	1.0	7	5	57	1	1	1	;
	112	114	5.0	8	5	58	1	1	1	;
	112	115	3.5	9	5	59	1	1	1	;
	113	118	1.5	0	6	60	1	1	1	;
	113	119	3.0	1	6	61	1	1	1	;
	114	119	1.0	2	6	62	1	1	1	;
	114	120	5.0	3	6	63	1	1	1	;
	115	120	3.5	4	6	64	1	1	1	;
	114	117	1.5	5	6	65	1	1	1	;
	115	117	3.0	6	6	66	1	1	1	;
	115	118	1.0	7	6	67	1	1	1	;
	116	118	5.0	8	6	68	1	1	1	;
	116	119	3.5	9	6	69	1	1	1	;
	117	122	1.5	0	7	70	1	1	1	;
	117	123	3.0	1	7	71	1	1	1	;
	118	123	1.0	2	7	72	1	1	1	;
	118	124	5.0	3	7	73	1	1	1	;
	119	124	3.5	4	7	74	1	1	1	;
	118	121	1.5	5	7	75	1	1	1	;
	119	121	3.0	6	7	76	1	1	1	;
	119	122	1.0	7	7	77	1	1	1	;
	120	122	5.0	8	7	78	1	1	1	;
	120	123	3.5	9	7	79	1	1	1	;
	121	126	1.5	0	8	80	1	1	1	;
	121	127	3.0	1	8	81	1	1	1	;
	122	127	1.0	2	8	82	1	1	1	;
	122	128	5.0	3	8	83	1	1	1	;
	123	128	3.5	4	8	84	1	1	1	;
	122	125	1.5	5	8	85	1	1	1	;
	123	125	3.0	6	8	86	1	1	1	;
	123	126	1.0	7	8	87	1	1	1	;
	124	126	5.0	8	8	88	1	1	1	;
	124	127	3.5	9	8	89	1	1	1	;
	125	130	1.5	0	9	90	1	1	1	;
	125	131	3.0	1	9	91	1	1	1	;
	126	131	1.0	2	9	92	1	1	1	;
	126	132	5.0	3	9	93	1	1	1	;
	127	132	3.5	4	9	94	1	1	1	;
	126	129	1.5	5	9	95	1	1	1	;
	127	129	3.0	6	9	96	1	1	1	;
	127	130	1.0	7	9	97	1	1	1	;
	128	130	5.0	8	9	98	1	1	1	;
	128	131	3.5	9	9	99	1	1	1	;
	129	134	1.5	0	10	100	1	1	1	;
	129	135	3.0	1	10	101	1	1	1	;
	130	135	1.0	2	10	102	1	1	1	;
	130	136	5.0	3	10	103	1	1	1	;
	131	136	3.5	4	10	104	1	1	1	;
	130	133	1.5	5	10	105	1	1	1	;
	131	133	3.0	6	10	106	1	1	1	;
	131	134	1.0	7	10	107	1	1	1	;
	132	134	5.0	8	10	108	1	1	1	;
	132	135	3.5	9	10	109	1	1	1	;
	133	138	1.5	0	11	110	1	1	1	;
	133	139	3.0	1	11	111	1	1	1	;
	134	139	1.0	2	11	112	1	1	1	;
	134	140	5.0	3	11	113	1	1	1	;
	135	140	3.5	4	11	114	1	1	1	;
	134	137	1.5	5	11	115	1	1	1	;
	135	137	3.0	6	11	116	1	1	1	;
	135	138	1.0	7	11	117	1	1	1	;
	136	138	5.0	8	11	118	1	1	1	;
	136	139	3.5	9	11	119	1	1	1	;
	137	142	1.5	0	12	120	1	1	1	;
	137	143	3.0	1	12	121	1	1	1	;
	138	143	1.0	2	12	122	1	1	1	;
	138	144	5.0	3	12	123	1	1	1	;
	139	144	3.5	4	12	124	1	1	1	;
	138	141	1.5	5	12	125	1	1	1	;
	139	141	3.0	6	12	126	1	1	1	;
	139	142	1.0	7	12	127	1	1	1	;
	140	142	5.0	8	12	128	1	1	1	;
	140	143	3.5	9	12	129	1	1	1	;
	141	146	1.5	0	13	130	1	1	1	;
	141	147	3.0	1	13	131	1	1	1	;
	142	147	1.0	2	13	132	1	1	1	;
	142	148	5.0	3	13	133	1	1	1	;
	143	148	3.5	4	13	134	1	1	1	;
	142	145	1.5	5	13	135	1	1	1	;
	143	145	3.0	6	13	136	1	1	1	;
	143	146	1.0	7	13	137	1	1	1	;
	144	146	5.0	8	13	138	1	1	1	;
	144	147	3.5	9	13	139	1	1	1	;
	145	150	1.5	0	14	140	1	1	1	;
	145	151	3.0	1	14	141	1	1	1	;
	146	151	1.0	2	14	142	1	1	1	;
	146	152	5.0	3	14	143	1	1	1	;
	147	152	3.5	4	14	144	1	1	1	;
	146	149	1.5	5	14	145	1	1	1	;
	147	149	3.0	6	14	146	1	1	1	;
	147	150	1.0	7	14	147	1	1	1	;
	148	150	5.0	8	14	148	1	1	1	;
	148	151	3.5	9	14	149	1	1	1	;
	149	154	1.5	0	15	150	1	1	1	;
	149	155	3.0	1	15	151	1	1	1	;
	150	155	1.0	2	15	152	1	1	1	;
	150	156	5.0	3	15	153	1	1	1	;
	151	156	3.5	4	15	154	1	1	1	;
	150	153	1.5	5	15	155	1	1	1	;
	151	153	3.0	6	15	156	1	1	1	;
	151	154	1.0	7	15	157	1	1	1	;
	152	154	5.0	8	15	158	1	1	1	;
	152	155	3.5	9	15	159	1	1	1	;
	153	158	1.5	0	16	160	1	1	1	;
	153	159	3.0	1	16	161	1	1	1	;
	154	159	1.0	2	16	162	1	1	1	;
	154	160	5.0	3	16	163	1	1	1	;
	155	160	3.5	4	16	164	1	1	1	;
	154	157	1.5	5	16	165	1	1	1	;
	155	157	3.0	6	16	166	1	1	1	;
	155	158	1.0	7	16	167	1	1	1	;
	156	158	5.0	8	16	168	1	1	1	;
	156	159	3.5	9	16	169	1	1	1	;
	157	162	1.5	0	17	170	1	1	1	;
	157	163	3.0	1	17	171	1	1	1	;
	158	163	1.0	2	17	172	1	1	1	;
	158	164	5.0	3	17	173	1	1	1	;
	159	164	3.5	4	17	174	1	1	1	;
	158	161	1.5	5	17	175	1	1	1	;
	159	161	3.0	6	17	176	1	1	1	;
	159	162	1.0	7	17	177	1	1	1	;
	160	162	5.0	8	17	178	1	1	1	;
	160	163	3.5	9	17	179	1	1	1	;
	161	166	1.5	0	18	180	1	1	1	;
	161	167	3.0	1	18	181	1	1	1	;
	162	167	1.0	2	18	182	1	1	1	;
	162	168	5.0	3	18	183	1	1	1	;
	163	168	3.5	4	18	184	1	1	1	;
	162	165	1.5	5	18	185	1	1	1	;
	163	165	3.0	6	18	186	1	1	1	;
	163	166	1.0	7	18	187	1	1	1	;
	164	166	5.0	8	18	188	1	1	1	;
	164	167	3.5	9	18	189	1	1	1	;
	1	5	50.0	-1	-1	-1	-1	-1	0	;
	1	6	50.0	-1	-1	-1	-1	-1	0	;
	1	7	50.0	-1	-1	-1	-1	-1	0	;
	1	8	50.0	-1	-1	-1	-1	-1	0	;
	2	5	50.0	-1	-1	-1	-1	-1	0	;
	2	6	50.0	-1	-1	-1	-1	-1	0	;
	2	7	50.0	-1	-1	-1	-1	-1	0	;
	2	8	50.0	-1	-1	-1	-1	-1	0	;
	3	5	50.0	-1	-1	-1	-1	-1	0	;
	3	6	50.0	-1	-1	-1	-1	-1	0	;
	3	7	50.0	-1	-1	-1	-1	-1	0	;
	3	8	50.0	-1	-1	-1	-1	-1	0	;
	4	5	50.0	-1	-1	-1	-1	-1	0	;
	4	6	50.0	-1	-1	-1	-1	-1	0	;
	4	7	50.0	-1	-1	-1	-1	-1	0	;
	4	8	50.0	-1	-1	-1	-1	-1	0	;
	1	9	1.0	-1	0	-1	0	-1	0	;
	2	10	1.0	-1	0	-1	0	-1	0	;
	3	11	1.0	-1	0	-1	0	-1	0	;
	4	12	1.0	-1	0	-1	0	-1	0	;
	1	13	1.0	-1	1	-1	0	-1	0	;
	2	14	1.0	-1	1	-1	0	-1	0	;
	3	15	1.0	-1	1	-1	0	-1	0	;
	4	16	1.0	-1	1	-1	0	-1	0	;
	1	17	1.0	-1	2	-1	0	-1	0	;
	2	18	1.0	-1	2	-1	0	-1	0	;
	3	19	1.0	-1	2	-1	0	-1	0	;
	4	20	1.0	-1	2	-1	0	-1	0	;
	1	21	1.0	-1	3	-1	0	-1	0	;
	2	22	1.0	-1	3	-1	0	-1	0	;
	3	23	1.0	-1	3	-1	0	-1	0	;
	4	24	1.0	-1	3	-1	0	-1	0	;
	1	25	1.0	-1	4	-1	0	-1	0	;
	2	26	1.0	-1	4	-1	0	-1	0	;
	3	27	1.0	-1	4	-1	0	-1	0	;
	4	28	1.0	-1	4	-1	0	-1	0	;
	1	29	1.0	-1	5	-1	0	-1	0	;
	2	30	1.0	-1	5	-1	0	-1	0	;
	3	31	1.0	-1	5	-1	0	-1	0	;
	4	32	1.0	-1	5	-1	0	-1	0	;
	1	33	1.0	-1	6	-1	0	-1	0	;
	2	34	1.0	-1	6	-1	0	-1	0	;
	3	35	1.0	-1	6	-1	0	-1	0	;
	4	36	1.0	-1	6	-1	0	-1	0	;
	1	37	1.0	-1	7	-1	0	-1	0	;
	2	38	1.0	-1	7	-1	0	-1	0	;
	3	39	1.0	-1	7	-1	0	-1	0	;
	4	40	1.0	-1	7	-1	0	-1	0	;
	1	41	1.0	-1	8	-1	0	-1	0	;
	2	42	1.0	-1	8	-1	0	-1	0	;
	3	43	1.0	-1	8	-1	0	-1	0	;
	4	44	1.0	-1	8	-1	0	-1	0	;
	1	45	1.0	-1	9	-1	0	-1	0	;
	2	46	1.0	-1	9	-1	0	-1	0	;
	3	47	1.0	-1	9	-1	0	-1	0	;
	4	48	1.0	-1	9	-1	0	-1	0	;
	1	49	1.0	-1	10	-1	0	-1	0	;
	2	50	1.0	-1	10	-1	0	-1	0	;
	3	51	1.0	-1	10	-1	0	-1	0	;
	4	52	1.0	-1	10	-1	0	-1	0	;
	1	53	1.0	-1	11	-1	0	-1	0	;
	2	54	1.0	-1	11	-1	0	-1	0	;
	3	55	1.0	-1	11	-1	0	-1	0	;
	4	56	1.0	-1	11	-1	0	-1	0	;
	1	57	1.0	-1	12	-1	0	-1	0	;
	2	58	1.0	-1	12	-1	0	-1	0	;
	3	59	1.0	-1	12	-1	0	-1	0	;
	4	60	1.0	-1	12	-1	0	-1	0	;
	1	61	1.0	-1	13	-1	0	-1	0	;
	2	62	1.0	-1	13	-1	0	-1	0	;
	3	63	1.0	-1	13	-1	0	-1	0	;
	4	64	1.0	-1	13	-1	0	-1	0	;
	1	65	1.0	-1	14	-1	0	-1	0	;
	2	66	1.0	-1	14	-1	0	-1	0	;
	3	67	1.0	-1	14	-1	0	-1	0	;
	4	68	1.0	-1	14	-1	0	-1	0	;
	1	69	1.0	-1	15	-1	0	-1	0	;
	2	70	1.0	-1	15	-1	0	-1	0	;
	3	71	1.0	-1	15	-1	0	-1	0	;
	4	72	1.0	-1	15	-1	0	-1	0	;
	1	73	1.0	-1	16	-1	0	-1	0	;
	2	74	1.0	-1	16	-1	0	-1	0	;
	3	75	1.0	-1	16	-1	0	-1	0	;
	4	76	1.0	-1	16	-1	0	-1	0	;
	1	77	1.0	-1	17	-1	0	-1	0	;
	2	78	1.0	-1	17	-1	0	-1	0	;
	3	79	1.0	-1	17	-1	0	-1	0	;
	4	80	1.0	-1	17	-1	0	-1	0	;
	1	81	1.0	-1	18	-1	0	-1	0	;
	2	82	1.0	-1	18	-1	0	-1	0	;
	3	83	1.0	-1	18	-1	0	-1	0	;
	4	84	1.0	-1	18	-1	0	-1	0	;
	1	85	1.0	-1	19	-1	0	-1	0	;
	2	86	1.0	-1	19	-1	0	-1	0	;
	3	87	1.0	-1	19	-1	0	-1	0	;
	4	88	1.0	-1	19	-1	0	-1	0	;
	9	5	6.0	-1	0	-1	0	-1	0	;
	10	6	6.0	-1	0	-1	0	-1	0	;
	11	7	6.0	-1	0	-1	0	-1	0	;
	12	8	6.0	-1	0	-1	0	-1	0	;
	13	5	5.5	-1	1	-1	0	-1	0	;
	14	6	5.5	-1	1	-1	0	-1	0	;
	15	7	5.5	-1	1	-1	0	-1	0	;
	16	8	5.5	-1	1	-1	0	-1	0	;
	17	5	5.0	-1	2	-1	0	-1	0	;
	18	6	5.0	-1	2	-1	0	-1	0	;
	19	7	5.0	-1	2	-1	0	-1	0	;
	20	8	5.0	-1	2	-1	0	-1	0	;
	21	5	4.5	-1	3	-1	0	-1	0	;
	22	6	4.5	-1	3	-1	0	-1	0	;
	23	7	4.5	-1	3	-1	0	-1	0	;
	24	8	4.5	-1	3	-1	0	-1	0	;
	25	5	4.0	-1	4	-1	0	-1	0	;
	26	6	4.0	-1	4	-1	0	-1	0	;
	27	7	4.0	-1	4	-1	0	-1	0	;
	28	8	4.0	-1	4	-1	0	-1	0	;
	29	5	3.5	-1	5	-1	0	-1	0	;
	30	6	3.5	-1	5	-1	0	-1	0	;
	31	7	3.5	-1	5	-1	0	-1	0	;
	32	8	3.5	-1	5	-1	0	-1	0	;
	33	5	3.0	-1	6	-1	0	-1	0	;
	34	6	3.0	-1	6	-1	0	-1	0	;
	35	7	3.0	-1	6	-1	0	-1	0	;
	36	8	3.0	-1	6	-1	0	-1	0	;
	37	5	2.5	-1	7	-1	0	-1	0	;
	38	6	2.5	-1	7	-1	0	-1	0	;
	39	7	2.5	-1	7	-1	0	-1	0	;
	40	8	2.5	-1	7	-1	0	-1	0	;
	41	5	2.0	-1	8	-1	0	-1	0	;
	42	6	2.0	-1	8	-1	0	-1	0	;
	43	7	2.0	-1	8	-1	0	-1	0	;
	44	8	2.0	-1	8	-1	0	-1	0	;
	45	5	1.5	-1	9	-1	0	-1	0	;
	46	6	1.5	-1	9	-1	0	-1	0	;
	47	7	1.5	-1	9	-1	0	-1	0	;
	48	8	1.5	-1	9	-1	0	-1	0	;
	49	5	1.0	-1	10	-1	0	-1	0	;
	50	6	1.0	-1	10	-1	0	-1	0	;
	51	7	1.0	-1	10	-1	0	-1	0	;
	52	8	1.0	-1	10	-1	0	-1	0	;
	53	5	0.5	-1	11	-1	0	-1	0	;
	54	6	0.5	-1	11	-1	0	-1	0	;
	55	7	0.5	-1	11	-1	0	-1	0	;
	56	8	0.5	-1	11	-1	0	-1	0	;
	57	5	0.0	-1	12	-1	0	-1	0	;
	58	6	0.0	-1	12	-1	0	-1	0	;
	59	7	0.0	-1	12	-1	0	-1	0	;
	60	8	0.0	-1	12	-1	0	-1	0	;
	61	5	1.0	-1	13	-1	0	-1	0	;
	62	6	1.0	-1	13	-1	0	-1	0	;
	63	7	1.0	-1	13	-1	0	-1	0	;
	64	8	1.0	-1	13	-1	0	-1	0	;
	65	5	2.0	-1	14	-1	0	-1	0	;
	66	6	2.0	-1	14	-1	0	-1	0	;
	67	7	2.0	-1	14	-1	0	-1	0	;
	68	8	2.0	-1	14	-1	0	-1	0	;
	69	5	3.0	-1	15	-1	0	-1	0	;
	70	6	3.0	-1	15	-1	0	-1	0	;
	71	7	3.0	-1	15	-1	0	-1	0	;
	72	8	3.0	-1	15	-1	0	-1	0	;
	73	5	4.0	-1	16	-1	0	-1	0	;
	74	6	4.0	-1	16	-1	0	-1	0	;
	75	7	4.0	-1	16	-1	0	-1	0	;
	76	8	4.0	-1	16	-1	0	-1	0	;
	77	5	5.0	-1	17	-1	0	-1	0	;
	78	6	5.0	-1	17	-1	0	-1	0	;
	79	7	5.0	-1	17	-1	0	-1	0	;
	80	8	5.0	-1	17	-1	0	-1	0	;
	81	5	6.0	-1	18	-1	0	-1	0	;
	82	6	6.0	-1	18	-1	0	-1	0	;
	83	7	6.0	-1	18	-1	0	-1	0	;
	84	8	6.0	-1	18	-1	0	-1	0	;
	85	5	7.0	-1	19	-1	0	-1	0	;
	86	6	7.0	-1	19	-1	0	-1	0	;
	87	7	7.0	-1	19	-1	0	-1	0	;
	88	8	7.0	-1	19	-1	0	-1	0	;
	9	93	1.0	-1	0	-1	-1	2	1	;
	10	94	1.0	-1	0	-1	-1	2	1	;
	11	95	1.0	-1	0	-1	-1	2	1	;
	12	96	1.0	-1	0	-1	-1	2	1	;
	13	97	1.0	-1	1	-1	-1	2	1	;
	14	98	1.0	-1	1	-1	-1	2	1	;
	15	99	1.0	-1	1	-1	-1	2	1	;
	16	100	1.0	-1	1	-1	-1	2	1	;
	17	101	1.0	-1	2	-1	-1	2	1	;
	18	102	1.0	-1	2	-1	-1	2	1	;
	19	103	1.0	-1	2	-1	-1	2	1	;
	20	104	1.0	-1	2	-1	-1	2	1	;
	21	105	1.0	-1	3	-1	-1	2	1	;
	22	106	1.0	-1	3	-1	-1	2	1	;
	23	107	1.0	-1	3	-1	-1	2	1	;
	24	108	1.0	-1	3	-1	-1	2	1	;
	25	109	1.0	-1	4	-1	-1	2	1	;
	26	110	1.0	-1	4	-1	-1	2	1	;
	27	111	1.0	-1	4	-1	-1	2	1	;
	28	112	1.0	-1	4	-1	-1	2	1	;
	29	113	1.0	-1	5	-1	-1	2	1	;
	30	114	1.0	-1	5	-1	-1	2	1	;
	31	115	1.0	-1	5	-1	-1	2	1	;
	32	116	1.0	-1	5	-1	-1	2	1	;
	33	117	1.0	-1	6	-1	-1	2	1	;
	34	118	1.0	-1	6	-1	-1	2	1	;
	35	119	1.0	-1	6	-1	-1	2	1	;
	36	120	1.0	-1	6	-1	-1	2	1	;
	37	121	1.0	-1	7	-1	-1	2	1	;
	38	122	1.0	-1	7	-1	-1	2	1	;
	39	123	1.0	-1	7	-1	-1	2	1	;
	40	124	1.0	-1	7	-1	-1	2	1	;
	41	125	1.0	-1	8	-1	-1	2	1	;
	42	126	1.0	-1	8	-1	-1	2	1	;
	43	127	1.0	-1	8	-1	-1	2	1	;
	44	128	1.0	-1	8	-1	-1	2	1	;
	45	129	1.0	-1	9	-1	-1	2	1	;
	46	130	1.0	-1	9	-1	-1	2	1	;
	47	131	1.0	-1	9	-1	-1	2	1	;
	48	132	1.0	-1	9	-1	-1	2	1	;
	49	133	1.0	-1	10	-1	-1	2	1	;
	50	134	1.0	-1	10	-1	-1	2	1	;
	51	135	1.0	-1	10	-1	-1	2	1	;
	52	136	1.0	-1	10	-1	-1	2	1	;
	53	137	1.0	-1	11	-1	-1	2	1	;
	54	138	1.0	-1	11	-1	-1	2	1	;
	55	139	1.0	-1	11	-1	-1	2	1	;
	56	140	1.0	-1	11	-1	-1	2	1	;
	57	141	1.0	-1	12	-1	-1	2	1	;
	58	142	1.0	-1	12	-1	-1	2	1	;
	59	143	1.0	-1	12	-1	-1	2	1	;
	60	144	1.0	-1	12	-1	-1	2	1	;
	61	145	1.0	-1	13	-1	-1	2	1	;
	62	146	1.0	-1	13	-1	-1	2	1	;
	63	147	1.0	-1	13	-1	-1	2	1	;
	64	148	1.0	-1	13	-1	-1	2	1	;
	65	149	1.0	-1	14	-1	-1	2	1	;
	66	150	1.0	-1	14	-1	-1	2	1	;
	67	151	1.0	-1	14	-1	-1	2	1	;
	68	152	1.0	-1	14	-1	-1	2	1	;
	69	153	1.0	-1	15	-1	-1	2	1	;
	70	154	1.0	-1	15	-1	-1	2	1	;
	71	155	1.0	-1	15	-1	-1	2	1	;
	72	156	1.0	-1	15	-1	-1	2	1	;
	73	157	1.0	-1	16	-1	-1	2	1	;
	74	158	1.0	-1	16	-1	-1	2	1	;
	75	159	1.0	-1	16	-1	-1	2	1	;
	76	160	1.0	-1	16	-1	-1	2	1	;
	77	161	1.0	-1	17	-1	-1	2	1	;
	78	162	1.0	-1	17	-1	-1	2	1	;
	79	163	1.0	-1	17	-1	-1	2	1	;
	80	164	1.0	-1	17	-1	-1	2	1	;
	81	165	1.0	-1	18	-1	-1	2	1	;
	82	166	1.0	-1	18	-1	-1	2	1	;
	83	167	1.0	-1	18	-1	-1	2	1	;
	84	168	1.0	-1	18	-1	-1	2	1	;
	89	13	1.0	-1	0	-1	-1	3	1	;
	90	14	1.0	-1	0	-1	-1	3	1	;
	91	15	1.0	-1	0	-1	-1	3	1	;
	92	16	1.0	-1	0	-1	-1	3	1	;
	93	17	1.0	-1	1	-1	-1	3	1	;
	94	18	1.0	-1	1	-1	-1	3	1	;
	95	19	1.0	-1	1	-1	-1	3	1	;
	96	20	1.0	-1	1	-1	-1	3	1	;
	97	21	1.0	-1	2	-1	-1	3	1	;
	98	22	1.0	-1	2	-1	-1	3	1	;
	99	23	1.0	-1	2	-1	-1	3	1	;
	100	24	1.0	-1	2	-1	-1	3	1	;
	101	25	1.0	-1	3	-1	-1	3	1	;
	102	26	1.0	-1	3	-1	-1	3	1	;
	103	27	1.0	-1	3	-1	-1	3	1	;
	104	28	1.0	-1	3	-1	-1	3	1	;
	105	29	1.0	-1	4	-1	-1	3	1	;
	106	30	1.0	-1	4	-1	-1	3	1	;
	107	31	1.0	-1	4	-1	-1	3	1	;
	108	32	1.0	-1	4	-1	-1	3	1	;
	109	33	1.0	-1	5	-1	-1	3	1	;
	110	34	1.0	-1	5	-1	-1	3	1	;
	111	35	1.0	-1	5	-1	-1	3	1	;
	112	36	1.0	-1	5	-1	-1	3	1	;
	113	37	1.0	-1	6	-1	-1	3	1	;
	114	38	1.0	-1	6	-1	-1	3	1	;
	115	39	1.0	-1	6	-1	-1	3	1	;
	116	40	1.0	-1	6	-1	-1	3	1	;
	117	41	1.0	-1	7	-1	-1	3	1	;
	118	42	1.0	-1	7	-1	-1	3	1	;
	119	43	1.0	-1	7	-1	-1	3	1	;
	120	44	1.0	-1	7	-1	-1	3	1	;
	121	45	1.0	-1	8	-1	-1	3	1	;
	122	46	1.0	-1	8	-1	-1	3	1	;
	123	47	1.0	-1	8	-1	-1	3	1	;
	124	48	1.0	-1	8	-1	-1	3	1	;
	125	49	1.0	-1	9	-1	-1	3	1	;
	126	50	1.0	-1	9	-1	-1	3	1	;
	127	51	1.0	-1	9	-1	-1	3	1	;
	128	52	1.0	-1	9	-1	-1	3	1	;
	129	53	1.0	-1	10	-1	-1	3	1	;
	130	54	1.0	-1	10	-1	-1	3	1	;
	131	55	1.0	-1	10	-1	-1	3	1	;
	132	56	1.0	-1	10	-1	-1	3	1	;
	133	57	1.0	-1	11	-1	-1	3	1	;
	134	58	1.0	-1	11	-1	-1	3	1	;
	135	59	1.0	-1	11	-1	-1	3	1	;
	136	60	1.0	-1	11	-1	-1	3	1	;
	137	61	1.0	-1	12	-1	-1	3	1	;
	138	62	1.0	-1	12	-1	-1	3	1	;
	139	63	1.0	-1	12	-1	-1	3	1	;
	140	64	1.0	-1	12	-1	-1	3	1	;
	141	65	1.0	-1	13	-1	-1	3	1	;
	142	66	1.0	-1	13	-1	-1	3	1	;
	143	67	1.0	-1	13	-1	-1	3	1	;
	144	68	1.0	-1	13	-1	-1	3	1	;
	145	69	1.0	-1	14	-1	-1	3	1	;
	146	70	1.0	-1	14	-1	-1	3	1	;
	147	71	1.0	-1	14	-1	-1	3	1	;
	148	72	1.0	-1	14	-1	-1	3	1	;
	149	73	1.0	-1	15	-1	-1	3	1	;
	150	74	1.0	-1	15	-1	-1	3	1	;
	151	75	1.0	-1	15	-1	-1	3	1	;
	152	76	1.0	-1	15	-1	-1	3	1	;
	153	77	1.0	-1	16	-1	-1	3	1	;
	154	78	1.0	-1	16	-1	-1	3	1	;
	155	79	1.0	-1	16	-1	-1	3	1	;
	156	80	1.0	-1	16	-1	-1	3	1	;
	157	81	1.0	-1	17	-1	-1	3	1	;
	158	82	1.0	-1	17	-1	-1	3	1	;
	159	83	1.0	-1	17	-1	-1	3	1	;
	160	84	1.0	-1	17	-1	-1	3	1	;
	161	85	1.0	-1	18	-1	-1	3	1	;
	162	86	1.0	-1	18	-1	-1	3	1	;
	163	87	1.0	-1	18	-1	-1	3	1	;
	164	88	1.0	-1	18	-1	-1	3	1	;