<NUMBER OF ZONES> 25
<TOTAL OD FLOW> 10000
<END OF METADATA>



Origin  1
	26 :	34.0;	27 :	19.0;	28 :	1.0;	29 :	25.0;	30 :	21.0;
	31 :	13.0;	32 :	20.0;	33 :	32.0;	34 :	27.0;	35 :	29.0;
	36 :	32.0;	37 :	26.0;	38 :	5.0;	39 :	11.0;	40 :	16.0;
	41 :	0.0;	42 :	1.0;	43 :	5.0;	44 :	29.0;	45 :	2.0;
	46 :	27.0;	47 :	6.0;	48 :	1.0;	49 :	15.0;	50 :	1.0;


Origin  2
	26 :	4.0;	27 :	2.0;	28 :	10.0;	29 :	26.0;	30 :	17.0;
	31 :	17.0;	32 :	26.0;	33 :	3.0;	34 :	3.0;	35 :	13.0;
	36 :	14.0;	37 :	7.0;	38 :	23.0;	39 :	20.0;	40 :	18.0;
	41 :	3.0;	42 :	10.0;	43 :	23.0;	44 :	21.0;	45 :	22.0;
	46 :	14.0;	47 :	27.0;	48 :	17.0;	49 :	2.0;	50 :	3.0;


Origin  3
	26 :	11.0;	27 :	6.0;	28 :	8.0;	29 :	10.0;	30 :	20.0;
	31 :	31.0;	32 :	8.0;	33 :	0.0;	34 :	16.0;	35 :	27.0;
	36 :	32.0;	37 :	20.0;	38 :	2.0;	39 :	29.0;	40 :	5.0;
	41 :	29.0;	42 :	2.0;	43 :	16.0;	44 :	5.0;	45 :	11.0;
	46 :	14.0;	47 :	4.0;	48 :	30.0;	49 :	24.0;	50 :	13.0;


Origin  4
	26 :	10.0;	27 :	12.0;	28 :	8.0;	29 :	23.0;	30 :	26.0;
	31 :	19.0;	32 :	7.0;	33 :	0.0;	34 :	11.0;	35 :	29.0;
	36 :	24.0;	37 :	30.0;	38 :	11.0;	39 :	26.0;	40 :	12.0;
	41 :	26.0;	42 :	20.0;	43 :	30.0;	44 :	12.0;	45 :	30.0;
	46 :	4.0;	47 :	6.0;	48 :	13.0;	49 :	17.0;	50 :	0.0;


Origin  5
	26 :	16.0;	27 :	26.0;	28 :	12.0;	29 :	27.0;	30 :	9.0;
	31 :	13.0;	32 :	18.0;	33 :	20.0;	34 :	21.0;	35 :	1.0;
	36 :	18.0;	37 :	7.0;	38 :	23.0;	39 :	32.0;	40 :	1.0;
	41 :	12.0;	42 :	31.0;	43 :	24.0;	44 :	32.0;	45 :	10.0;
	46 :	17.0;	47 :	1.0;	48 :	16.0;	49 :	19.0;	50 :	22.0;


Origin  6
	26 :	19.0;	27 :	5.0;	28 :	4.0;	29 :	28.0;	30 :	29.0;
	31 :	15.0;	32 :	2.0;	33 :	22.0;	34 :	10.0;	35 :	29.0;
	36 :	31.0;	37 :	14.0;	38 :	26.0;	39 :	29.0;	40 :	17.0;
	41 :	12.0;	42 :	20.0;	43 :	29.0;	44 :	28.0;	45 :	11.0;
	46 :	12.0;	47 :	22.0;	48 :	3.0;	49 :	30.0;	50 :	17.0;


Origin  7
	26 :	17.0;	27 :	14.0;	28 :	25.0;	29 :	10.0;	30 :	13.0;
	31 :	14.0;	32 :	24.0;	33 :	5.0;	34 :	4.0;	35 :	2.0;
	36 :	12.0;	37 :	21.0;	38 :	12.0;	39 :	7.0;	40 :	26.0;
	41 :	17.0;	42 :	11.0;	43 :	31.0;	44 :	25.0;	45 :	1.0;
	46 :	8.0;	47 :	12.0;	48 :	24.0;	49 :	19.0;	50 :	32.0;


Origin  8
	26 :	31.0;	27 :	32.0;	28 :	29.0;	29 :	32.0;	30 :	25.0;
	31 :	28.0;	32 :	13.0;	33 :	6.0;	34 :	32.0;	35 :	20.0;
	36 :	23.0;	37 :	11.0;	38 :	20.0;	39 :	3.0;	40 :	25.0;
	41 :	31.0;	42 :	19.0;	43 :	28.0;	44 :	4.0;	45 :	29.0;
	46 :	24.0;	47 :	31.0;	48 :	30.0;	49 :	29.0;	50 :	7.0;


Origin  9
	26 :	20.0;	27 :	19.0;	28 :	12.0;	29 :	7.0;	30 :	18.0;
	31 :	31.0;	32 :	30.0;	33 :	28.0;	34 :	14.0;	35 :	2.0;
	36 :	10.0;	37 :	6.0;	38 :	17.0;	39 :	16.0;	40 :	13.0;
	41 :	6.0;	42 :	25.0;	43 :	24.0;	44 :	31.0;	45 :	4.0;
	46 :	26.0;	47 :	32.0;	48 :	19.0;	49 :	14.0;	50 :	10.0;


Origin  10
	26 :	19.0;	27 :	2.0;	28 :	9.0;	29 :	32.0;	30 :	33.0;
	31 :	21.0;	32 :	3.0;	33 :	2.0;	34 :	5.0;	35 :	27.0;
	36 :	11.0;	37 :	22.0;	38 :	5.0;	39 :	8.0;	40 :	20.0;
	41 :	27.0;	42 :	2.0;	43 :	11.0;	44 :	16.0;	45 :	4.0;
	46 :	1.0;	47 :	10.0;	48 :	11.0;	49 :	15.0;	50 :	13.0;


Origin  11
	26 :	22.0;	27 :	7.0;	28 :	9.0;	29 :	18.0;	30 :	2.0;
	31 :	10.0;	32 :	25.0;	33 :	21.0;	34 :	15.0;	35 :	26.0;
	36 :	9.0;	37 :	28.0;	38 :	9.0;	39 :	15.0;	40 :	23.0;
	41 :	16.0;	42 :	31.0;	43 :	18.0;	44 :	25.0;	45 :	26.0;
	46 :	8.0;	47 :	1.0;	48 :	14.0;	49 :	8.0;	50 :	0.0;


Origin  12
	26 :	13.0;	27 :	30.0;	28 :	18.0;	29 :	4.0;	30 :	21.0;
	31 :	1.0;	32 :	7.0;	33 :	32.0;	34 :	9.0;	35 :	28.0;
	36 :	24.0;	37 :	28.0;	38 :	22.0;	39 :	22.0;	40 :	14.0;
	41 :	19.0;	42 :	8.0;	43 :	14.0;	44 :	13.0;	45 :	2.0;
	46 :	10.0;	47 :	29.0;	48 :	30.0;	49 :	31.0;	50 :	19.0;


Origin  13
	26 :	27.0;	27 :	16.0;	28 :	7.0;	29 :	26.0;	30 :	32.0;
	31 :	11.0;	32 :	28.0;	33 :	28.0;	34 :	10.0;	35 :	26.0;
	36 :	3.0;	37 :	2.0;	38 :	1.0;	39 :	1.0;	40 :	14.0;
	41 :	4.0;	42 :	5.0;	43 :	10.0;	44 :	10.0;	45 :	20.0;
	46 :	31.0;	47 :	1.0;	48 :	9.0;	49 :	4.0;	50 :	22.0;


Origin  14
	26 :	4.0;	27 :	21.0;	28 :	28.0;	29 :	8.0;	30 :	8.0;
	31 :	1.0;	32 :	24.0;	33 :	3.0;	34 :	21.0;	35 :	9.0;
	36 :	29.0;	37 :	6.0;	38 :	29.0;	39 :	4.0;	40 :	20.0;
	41 :	12.0;	42 :	5.0;	43 :	27.0;	44 :	27.0;	45 :	24.0;
	46 :	14.0;	47 :	15.0;	48 :	6.0;	49 :	18.0;	50 :	15.0;


Origin  15
	26 :	2.0;	27 :	22.0;	28 :	25.0;	29 :	27.0;	30 :	3.0;
	31 :	17.0;	32 :	0.0;	33 :	1.0;	34 :	3.0;	35 :	0.0;
	36 :	19.0;	37 :	24.0;	38 :	15.0;	39 :	11.0;	40 :	3.0;
	41 :	23.0;	42 :	3.0;	43 :	1.0;	44 :	29.0;	45 :	15.0;
	46 :	1.0;	47 :	33.0;	48 :	1.0;	49 :	11.0;	50 :	11.0;


Origin  16
	26 :	9.0;	27 :	19.0;	28 :	8.0;	29 :	24.0;	30 :	18.0;
	31 :	31.0;	32 :	6.0;	33 :	2.0;	34 :	0.0;	35 :	29.0;
	36 :	25.0;	37 :	6.0;	38 :	10.0;	39 :	30.0;	40 :	2.0;
	41 :	26.0;	42 :	23.0;	43 :	27.0;	44 :	15.0;	45 :	9.0;
	46 :	21.0;	47 :	18.0;	48 :	14.0;	49 :	6.0;	50 :	11.0;


Origin  17
	26 :	16.0;	27 :	24.0;	28 :	30.0;	29 :	0.0;	30 :	23.0;
	31 :	26.0;	32 :	9.0;	33 :	8.0;	34 :	6.0;	35 :	12.0;
	36 :	19.0;	37 :	24.0;	38 :	1.0;	39 :	21.0;	40 :	13.0;
	41 :	12.0;	42 :	31.0;	43 :	27.0;	44 :	13.0;	45 :	8.0;
	46 :	15.0;	47 :	6.0;	48 :	3.0;	49 :	21.0;	50 :	4.0;


Origin  18
	26 :	25.0;	27 :	11.0;	28 :	21.0;	29 :	10.0;	30 :	32.0;
	31 :	16.0;	32 :	9.0;	33 :	16.0;	34 :	23.0;	35 :	30.0;
	36 :	10.0;	37 :	30.0;	38 :	8.0;	39 :	19.0;	40 :	13.0;
	41 :	28.0;	42 :	16.0;	43 :	21.0;	44 :	27.0;	45 :	18.0;
	46 :	25.0;	47 :	2.0;	48 :	9.0;	49 :	9.0;	50 :	24.0;


Origin  19
	26 :	27.0;	27 :	21.0;	28 :	20.0;	29 :	17.0;	30 :	13.0;
	31 :	10.0;	32 :	4.0;	33 :	25.0;	34 :	22.0;	35 :	12.0;
	36 :	31.0;	37 :	20.0;	38 :	4.0;	39 :	2.0;	40 :	27.0;
	41 :	6.0;	42 :	10.0;	43 :	11.0;	44 :	20.0;	45 :	21.0;
	46 :	26.0;	47 :	12.0;	48 :	18.0;	49 :	11.0;	50 :	9.0;


Origin  20
	26 :	24.0;	27 :	6.0;	28 :	31.0;	29 :	6.0;	30 :	8.0;
	31 :	28.0;	32 :	15.0;	33 :	27.0;	34 :	18.0;	35 :	18.0;
	36 :	14.0;	37 :	7.0;	38 :	21.0;	39 :	22.0;	40 :	1.0;
	41 :	3.0;	42 :	13.0;	43 :	7.0;	44 :	23.0;	45 :	26.0;
	46 :	15.0;	47 :	22.0;	48 :	26.0;	49 :	5.0;	50 :	29.0;


Origin  21
	26 :	23.0;	27 :	3.0;	28 :	9.0;	29 :	17.0;	30 :	5.0;
	31 :	29.0;	32 :	23.0;	33 :	29.0;	34 :	0.0;	35 :	22.0;
	36 :	31.0;	37 :	11.0;	38 :	15.0;	39 :	0.0;	40 :	32.0;
	41 :	3.0;	42 :	25.0;	43 :	14.0;	44 :	25.0;	45 :	1.0;
	46 :	18.0;	47 :	7.0;	48 :	30.0;	49 :	17.0;	50 :	6.0;


Origin  22
	26 :	29.0;	27 :	22.0;	28 :	14.0;	29 :	9.0;	30 :	2.0;
	31 :	4.0;	32 :	8.0;	33 :	32.0;	34 :	24.0;	35 :	31.0;
	36 :	30.0;	37 :	6.0;	38 :	9.0;	39 :	19.0;	40 :	21.0;
	41 :	25.0;	42 :	32.0;	43 :	6.0;	44 :	2.0;	45 :	21.0;
	46 :	29.0;	47 :	11.0;	48 :	27.0;	49 :	28.0;	50 :	4.0;


Origin  23
	26 :	22.0;	27 :	23.0;	28 :	20.0;	29 :	30.0;	30 :	28.0;
	31 :	32.0;	32 :	1.0;	33 :	11.0;	34 :	9.0;	35 :	2.0;
	36 :	15.0;	37 :	2.0;	38 :	1.0;	39 :	20.0;	40 :	11.0;
	41 :	17.0;	42 :	2.0;	43 :	21.0;	44 :	9.0;	45 :	20.0;
	46 :	19.0;	47 :	27.0;	48 :	32.0;	49 :	20.0;	50 :	22.0;


Origin  24
	26 :	14.0;	27 :	19.0;	28 :	14.0;	29 :	9.0;	30 :	17.0;
	31 :	6.0;	32 :	26.0;	33 :	29.0;	34 :	12.0;	35 :	18.0;
	36 :	20.0;	37 :	7.0;	38 :	31.0;	39 :	1.0;	40 :	10.0;
	41 :	2.0;	42 :	8.0;	43 :	12.0;	44 :	14.0;	45 :	7.0;
	46 :	23.0;	47 :	12.0;	48 :	20.0;	49 :	13.0;	50 :	1.0;


Origin  25
	26 :	0.0;	27 :	5.0;	28 :	20.0;	29 :	15.0;	30 :	29.0;
	31 :	8.0;	32 :	3.0;	33 :	10.0;	34 :	5.0;	35 :	16.0;
	36 :	20.0;	37 :	10.0;	38 :	27.0;	39 :	21.0;	40 :	20.0;
	41 :	15.0;	42 :	31.0;	43 :	12.0;	44 :	14.0;	45 :	6.0;
	46 :	30.0;	47 :	23.0;	48 :	2.0;	49 :	24.0;	50 :	21.0;
