<NUMBER OF ZONES> 25
<NUMBER OF NODES> 25
<FIRST THRU NODE> 1
<NUMBER OF LINKS> 40
<ORIGINAL HEADER> 
<END OF METADATA>


~	init_node	term_node	capacity	free_flow_time	;
	1	2	3360.0	5.0	;
	1	6	1988.0	5.0	;
	2	3	4864.0	5.0	;
	2	7	2118.0	5.0	;
	3	4	3502.0	5.0	;
	3	8	2757.0	5.0	;
	4	5	1277.0	5.0	;
	4	9	2156.0	5.0	;
	5	10	2192.0	5.0	;
	6	7	1876.0	5.0	;
	6	11	4694.0	5.0	;
	7	8	4010.0	5.0	;
	7	12	4412.0	5.0	;
	8	9	4598.0	5.0	;
	8	13	2301.0	5.0	;
	9	10	4558.0	5.0	;
	9	14	4060.0	5.0	;
	10	15	3434.0	5.0	;
	11	12	3481.0	5.0	;
	11	16	4166.0	5.0	;
	12	13	4655.0	5.0	;
	12	17	2352.0	5.0	;
	13	14	1155.0	5.0	;
	13	18	4378.0	5.0	;
	14	15	2708.0	5.0	;
	14	19	3420.0	5.0	;
	15	20	3786.0	5.0	;
	16	17	1963.0	5.0	;
	16	21	3225.0	5.0	;
	17	18	1554.0	5.0	;
	17	22	1061.0	5.0	;
	18	19	3636.0	5.0	;
	18	23	2628.0	5.0	;
	19	20	1616.0	5.0	;
	19	24	3126.0	5.0	;
	20	25	4000.0	5.0	;
	21	22	4314.0	5.0	;
	22	23	1544.0	5.0	;
	23	24	2249.0	5.0	;
	24	25	3746.0	5.0	;