<NUMBER OF ZONES> 8
<NUMBER OF NODES> 56
<FIRST THRU NODE> 1
<NUMBER OF LINKS> 149
<ORIGINAL HEADER> 
<END OF METADATA>


~	init_node	term_node	free_flow_time	original_link	time	original_TS_link	user_state	link_type	price_index	;
	9	14	5.5	0	0	0	0	1	0	;
	9	15	7.0	1	0	1	0	1	0	;
	10	15	5.0	2	0	2	0	1	0	;
	10	16	9.0	3	0	3	0	1	0	;
	11	16	7.5	4	0	4	0	1	0	;
	13	18	5.5	0	1	5	0	1	0	;
	13	19	7.0	1	1	6	0	1	0	;
	14	19	5.0	2	1	7	0	1	0	;
	14	20	9.0	3	1	8	0	1	0	;
	15	20	7.5	4	1	9	0	1	0	;
	17	22	5.5	0	2	10	0	1	0	;
	17	23	7.0	1	2	11	0	1	0	;
	18	23	5.0	2	2	12	0	1	0	;
	18	24	9.0	3	2	13	0	1	0	;
	19	24	7.5	4	2	14	0	1	0	;
	25	30	1.5	0	0	0	1	1	1	;
	25	31	3.0	1	0	1	1	1	1	;
	26	31	1.0	2	0	2	1	1	1	;
	26	32	5.0	3	0	3	1	1	1	;
	27	32	3.5	4	0	4	1	1	1	;
	29	34	1.5	0	1	5	1	1	1	;
	29	35	3.0	1	1	6	1	1	1	;
	30	35	1.0	2	1	7	1	1	1	;
	30	36	5.0	3	1	8	1	1	1	;
	31	36	3.5	4	1	9	1	1	1	;
	33	38	1.5	0	2	10	1	1	1	;
	33	39	3.0	1	2	11	1	1	1	;
	34	39	1.0	2	2	12	1	1	1	;
	34	40	5.0	3	2	13	1	1	1	;
	35	40	3.5	4	2	14	1	1	1	;
	41	46	2.0	0	0	0	2	1	2	;
	41	47	3.5	1	0	1	2	1	2	;
	42	47	1.5	2	0	2	2	1	2	;
	42	48	5.5	3	0	3	2	1	2	;
	43	48	4.0	4	0	4	2	1	2	;
	45	50	2.0	0	1	5	2	1	2	;
	45	51	3.5	1	1	6	2	1	2	;
	46	51	1.5	2	1	7	2	1	2	;
	46	52	5.5	3	1	8	2	1	2	;
	47	52	4.0	4	1	9	2	1	2	;
	49	54	2.0	0	2	10	2	1	2	;
	49	55	3.5	1	2	11	2	1	2	;
	50	55	1.5	2	2	12	2	1	2	;
	50	56	5.5	3	2	13	2	1	2	;
	51	56	4.0	4	2	14	2	1	2	;
	1	9	1.0	-1	0	-1	0	-1	0	;
	2	10	1.0	-1	0	-1	0	-1	0	;
	3	11	1.0	-1	0	-1	0	-1	0	;
	4	12	1.0	-1	0	-1	0	-1	0	;
	1	13	1.0	-1	1	-1	0	-1	0	;
	2	14	1.0	-1	1	-1	0	-1	0	;
	3	15	1.0	-1	1	-1	0	-1	0	;
	4	16	1.0	-1	1	-1	0	-1	0	;
	1	17	1.0	-1	2	-1	0	-1	0	;
	2	18	1.0	-1	2	-1	0	-1	0	;
	3	19	1.0	-1	2	-1	0	-1	0	;
	4	20	1.0	-1	2	-1	0	-1	0	;
	1	21	1.0	-1	3	-1	0	-1	0	;
	2	22	1.0	-1	3	-1	0	-1	0	;
	3	23	1.0	-1	3	-1	0	-1	0	;
	4	24	1.0	-1	3	-1	0	-1	0	;
	9	5	1.0	-1	0	-1	0	-1	0	;
	10	6	1.0	-1	0	-1	0	-1	0	;
	11	7	1.0	-1	0	-1	0	-1	0	;
	12	8	1.0	-1	0	-1	0	-1	0	;
	13	5	0.5	-1	1	-1	0	-1	0	;
	14	6	0.5	-1	1	-1	0	-1	0	;
	15	7	0.5	-1	1	-1	0	-1	0	;
	16	8	0.5	-1	1	-1	0	-1	0	;
	17	5	0.0	-1	2	-1	0	-1	0	;
	18	6	0.0	-1	2	-1	0	-1	0	;
	19	7	0.0	-1	2	-1	0	-1	0	;
	20	8	0.0	-1	2	-1	0	-1	0	;
	21	5	1.0	-1	3	-1	0	-1	0	;
	22	6	1.0	-1	3	-1	0	-1	0	;
	23	7	1.0	-1	3	-1	0	-1	0	;
	24	8	1.0	-1	3	-1	0	-1	0	;
	9	29	1.0	-1	0	-1	-1	2	1	;
	10	30	1.0	-1	0	-1	-1	2	1	;
	11	31	1.0	-1	0	-1	-1	2	1	;
	12	32	1.0	-1	0	-1	-1	2	1	;
	13	33	1.0	-1	1	-1	-1	2	1	;
	14	34	1.0	-1	1	-1	-1	2	1	;
	15	35	1.0	-1	1	-1	-1	2	1	;
	16	36	1.0	-1	1	-1	-1	2	1	;
	17	37	1.0	-1	2	-1	-1	2	1	;
	18	38	1.0	-1	2	-1	-1	2	1	;
	19	39	1.0	-1	2	-1	-1	2	1	;
	20	40	1.0	-1	2	-1	-1	2	1	;
	9	45	1.0	-1	0	-1	-1	2	2	;
	10	46	1.0	-1	0	-1	-1	2	2	;
	11	47	1.0	-1	0	-1	-1	2	2	;
	12	48	1.0	-1	0	-1	-1	2	2	;
	13	49	1.0	-1	1	-1	-1	2	2	;
	14	50	1.0	-1	1	-1	-1	2	2	;
	15	51	1.0	-1	1	-1	-1	2	2	;
	16	52	1.0	-1	1	-1	-1	2	2	;
	17	53	1.0	-1	2	-1	-1	2	2	;
	18	54	1.0	-1	2	-1	-1	2	2	;
	19	55	1.0	-1	2	-1	-1	2	2	;
	20	56	1.0	-1	2	-1	-1	2	2	;
	25	13	1.0	-1	0	-1	-1	3	1	;
	26	14	1.0	-1	0	-1	-1	3	1	;
	27	15	1.0	-1	0	-1	-1	3	1	;
	28	16	1.0	-1	0	-1	-1	3	1	;
	29	17	1.0	-1	1	-1	-1	3	1	;
	30	18	1.0	-1	1	-1	-1	3	1	;
	31	19	1.0	-1	1	-1	-1	3	1	;
	32	20	1.0	-1	1	-1	-1	3	1	;
	33	21	1.0	-1	2	-1	-1	3	1	;
	34	22	1.0	-1	2	-1	-1	3	1	;
	35	23	1.0	-1	2	-1	-1	3	1	;
	36	24	1.0	-1	2	-1	-1	3	1	;
	25	45	0.0	-1	0	-1	-1	0	0	;
	26	46	0.0	-1	0	-1	-1	0	0	;
	27	47	0.0	-1	0	-1	-1	0	0	;
	28	48	0.0	-1	0	-1	-1	0	0	;
	29	49	0.0	-1	1	-1	-1	0	0	;
	30	50	0.0	-1	1	-1	-1	0	0	;
	31	51	0.0	-1	1	-1	-1	0	0	;
	32	52	0.0	-1	1	-1	-1	0	0	;
	33	53	0.0	-1	2	-1	-1	0	0	;
	34	54	0.0	-1	2	-1	-1	0	0	;
	35	55	0.0	-1	2	-1	-1	0	0	;
	36	56	0.0	-1	2	-1	-1	0	0	;
	41	13	1.0	-1	0	-1	-1	3	2	;
	42	14	1.0	-1	0	-1	-1	3	2	;
	43	15	1.0	-1	0	-1	-1	3	2	;
	44	16	1.0	-1	0	-1	-1	3	2	;
	45	17	1.0	-1	1	-1	-1	3	2	;
	46	18	1.0	-1	1	-1	-1	3	2	;
	47	19	1.0	-1	1	-1	-1	3	2	;
	48	20	1.0	-1	1	-1	-1	3	2	;
	49	21	1.0	-1	2	-1	-1	3	2	;
	50	22	1.0	-1	2	-1	-1	3	2	;
	51	23	1.0	-1	2	-1	-1	3	2	;
	52	24	1.0	-1	2	-1	-1	3	2	;
	41	29	0.0	-1	0	-1	-1	0	0	;
	42	30	0.0	-1	0	-1	-1	0	0	;
	43	31	0.0	-1	0	-1	-1	0	0	;
	44	32	0.0	-1	0	-1	-1	0	0	;
	45	33	0.0	-1	1	-1	-1	0	0	;
	46	34	0.0	-1	1	-1	-1	0	0	;
	47	35	0.0	-1	1	-1	-1	0	0	;
	48	36	0.0	-1	1	-1	-1	0	0	;
	49	37	0.0	-1	2	-1	-1	0	0	;
	50	38	0.0	-1	2	-1	-1	0	0	;
	51	39	0.0	-1	2	-1	-1	0	0	;
	52	40	0.0	-1	2	-1	-1	0	0	;