<NUMBER OF ZONES> 8
<TOTAL OD FLOW> 1000.0
<END OF METADATA>



Origin  1
	5 :	8.492136612363014;	6 :	43.989551787164174;	7 :	103.14440263156877;	8 :	44.805318449601415;

Origin  2
	5 :	42.707602787360386;	6 :	30.993321248221125;	7 :	28.30210482535066;	8 :	98.47306163698627;

Origin  3
	5 :	110.75761731346938;	6 :	115.72248409847157;	7 :	80.09983139792959;	8 :	7.924325828662579;

Origin  4
	5 :	86.9087941148484;	6 :	22.827714023158777;	7 :	56.17647219730326;	8 :	118.6752610475405;