<NUMBER OF ZONES> 72
<NUMBER OF NODES> 720
<FIRST THRU NODE> 1
<NUMBER OF LINKS> 1140
<ORIGINAL HEADER> 
<END OF METADATA>


~	init_node	term_node	capacity	free_flow_time	original_link	time	;
	1	38	279.5	5.0	0	0	;
	1	43	405.40000000000003	5.0	1	0	;
	2	39	215.5	5.0	2	0	;
	2	44	103.10000000000001	5.0	3	0	;
	3	40	398.3	5.0	4	0	;
	3	45	291.5	5.0	5	0	;
	4	41	494.1	5.0	6	0	;
	4	46	440.1	5.0	7	0	;
	5	42	144.6	5.0	8	0	;
	5	47	184.5	5.0	9	0	;
	6	48	293.5	5.0	10	0	;
	7	44	268.90000000000003	5.0	11	0	;
	7	49	361.70000000000005	5.0	12	0	;
	8	45	438.0	5.0	13	0	;
	8	50	127.5	5.0	14	0	;
	9	46	105.60000000000001	5.0	15	0	;
	9	51	444.6	5.0	16	0	;
	10	47	176.70000000000002	5.0	17	0	;
	10	52	471.8	5.0	18	0	;
	11	48	414.40000000000003	5.0	19	0	;
	11	53	131.70000000000002	5.0	20	0	;
	12	54	257.1	5.0	21	0	;
	13	50	459.0	5.0	22	0	;
	13	55	389.20000000000005	5.0	23	0	;
	14	51	185.8	5.0	24	0	;
	14	56	341.6	5.0	25	0	;
	15	52	452.90000000000003	5.0	26	0	;
	15	57	140.4	5.0	27	0	;
	16	53	169.8	5.0	28	0	;
	16	58	198.0	5.0	29	0	;
	17	54	456.70000000000005	5.0	30	0	;
	17	59	404.0	5.0	31	0	;
	18	60	134.9	5.0	32	0	;
	19	56	388.0	5.0	33	0	;
	19	61	198.4	5.0	34	0	;
	20	57	208.5	5.0	35	0	;
	20	62	468.5	5.0	36	0	;
	21	58	181.0	5.0	37	0	;
	21	63	169.4	5.0	38	0	;
	22	59	238.5	5.0	39	0	;
	22	64	353.40000000000003	5.0	40	0	;
	23	60	354.0	5.0	41	0	;
	23	65	110.2	5.0	42	0	;
	24	66	301.8	5.0	43	0	;
	25	62	121.2	5.0	44	0	;
	25	67	272.3	5.0	45	0	;
	26	63	441.90000000000003	5.0	46	0	;
	26	68	135.9	5.0	47	0	;
	27	64	292.2	5.0	48	0	;
	27	69	455.0	5.0	49	0	;
	28	65	210.20000000000002	5.0	50	0	;
	28	70	332.6	5.0	51	0	;
	29	66	454.3	5.0	52	0	;
	29	71	181.10000000000002	5.0	53	0	;
	30	72	271.40000000000003	5.0	54	0	;
	31	68	275.3	5.0	55	0	;
	32	69	319.8	5.0	56	0	;
	33	70	227.4	5.0	57	0	;
	34	71	299.1	5.0	58	0	;
	35	72	244.3	5.0	59	0	;
	37	74	279.5	5.0	0	1	;
	37	79	405.40000000000003	5.0	1	1	;
	38	75	215.5	5.0	2	1	;
	38	80	103.10000000000001	5.0	3	1	;
	39	76	398.3	5.0	4	1	;
	39	81	291.5	5.0	5	1	;
	40	77	494.1	5.0	6	1	;
	40	82	440.1	5.0	7	1	;
	41	78	144.6	5.0	8	1	;
	41	83	184.5	5.0	9	1	;
	42	84	293.5	5.0	10	1	;
	43	80	268.90000000000003	5.0	11	1	;
	43	85	361.70000000000005	5.0	12	1	;
	44	81	438.0	5.0	13	1	;
	44	86	127.5	5.0	14	1	;
	45	82	105.60000000000001	5.0	15	1	;
	45	87	444.6	5.0	16	1	;
	46	83	176.70000000000002	5.0	17	1	;
	46	88	471.8	5.0	18	1	;
	47	84	414.40000000000003	5.0	19	1	;
	47	89	131.70000000000002	5.0	20	1	;
	48	90	257.1	5.0	21	1	;
	49	86	459.0	5.0	22	1	;
	49	91	389.20000000000005	5.0	23	1	;
	50	87	185.8	5.0	24	1	;
	50	92	341.6	5.0	25	1	;
	51	88	452.90000000000003	5.0	26	1	;
	51	93	140.4	5.0	27	1	;
	52	89	169.8	5.0	28	1	;
	52	94	198.0	5.0	29	1	;
	53	90	456.70000000000005	5.0	30	1	;
	53	95	404.0	5.0	31	1	;
	54	96	134.9	5.0	32	1	;
	55	92	388.0	5.0	33	1	;
	55	97	198.4	5.0	34	1	;
	56	93	208.5	5.0	35	1	;
	56	98	468.5	5.0	36	1	;
	57	94	181.0	5.0	37	1	;
	57	99	169.4	5.0	38	1	;
	58	95	238.5	5.0	39	1	;
	58	100	353.40000000000003	5.0	40	1	;
	59	96	354.0	5.0	41	1	;
	59	101	110.2	5.0	42	1	;
	60	102	301.8	5.0	43	1	;
	61	98	121.2	5.0	44	1	;
	61	103	272.3	5.0	45	1	;
	62	99	441.90000000000003	5.0	46	1	;
	62	104	135.9	5.0	47	1	;
	63	100	292.2	5.0	48	1	;
	63	105	455.0	5.0	49	1	;
	64	101	210.20000000000002	5.0	50	1	;
	64	106	332.6	5.0	51	1	;
	65	102	454.3	5.0	52	1	;
	65	107	181.10000000000002	5.0	53	1	;
	66	108	271.40000000000003	5.0	54	1	;
	67	104	275.3	5.0	55	1	;
	68	105	319.8	5.0	56	1	;
	69	106	227.4	5.0	57	1	;
	70	107	299.1	5.0	58	1	;
	71	108	244.3	5.0	59	1	;
	73	110	279.5	5.0	0	2	;
	73	115	405.40000000000003	5.0	1	2	;
	74	111	215.5	5.0	2	2	;
	74	116	103.10000000000001	5.0	3	2	;
	75	112	398.3	5.0	4	2	;
	75	117	291.5	5.0	5	2	;
	76	113	494.1	5.0	6	2	;
	76	118	440.1	5.0	7	2	;
	77	114	144.6	5.0	8	2	;
	77	119	184.5	5.0	9	2	;
	78	120	293.5	5.0	10	2	;
	79	116	268.90000000000003	5.0	11	2	;
	79	121	361.70000000000005	5.0	12	2	;
	80	117	438.0	5.0	13	2	;
	80	122	127.5	5.0	14	2	;
	81	118	105.60000000000001	5.0	15	2	;
	81	123	444.6	5.0	16	2	;
	82	119	176.70000000000002	5.0	17	2	;
	82	124	471.8	5.0	18	2	;
	83	120	414.40000000000003	5.0	19	2	;
	83	125	131.70000000000002	5.0	20	2	;
	84	126	257.1	5.0	21	2	;
	85	122	459.0	5.0	22	2	;
	85	127	389.20000000000005	5.0	23	2	;
	86	123	185.8	5.0	24	2	;
	86	128	341.6	5.0	25	2	;
	87	124	452.90000000000003	5.0	26	2	;
	87	129	140.4	5.0	27	2	;
	88	125	169.8	5.0	28	2	;
	88	130	198.0	5.0	29	2	;
	89	126	456.70000000000005	5.0	30	2	;
	89	131	404.0	5.0	31	2	;
	90	132	134.9	5.0	32	2	;
	91	128	388.0	5.0	33	2	;
	91	133	198.4	5.0	34	2	;
	92	129	208.5	5.0	35	2	;
	92	134	468.5	5.0	36	2	;
	93	130	181.0	5.0	37	2	;
	93	135	169.4	5.0	38	2	;
	94	131	238.5	5.0	39	2	;
	94	136	353.40000000000003	5.0	40	2	;
	95	132	354.0	5.0	41	2	;
	95	137	110.2	5.0	42	2	;
	96	138	301.8	5.0	43	2	;
	97	134	121.2	5.0	44	2	;
	97	139	272.3	5.0	45	2	;
	98	135	441.90000000000003	5.0	46	2	;
	98	140	135.9	5.0	47	2	;
	99	136	292.2	5.0	48	2	;
	99	141	455.0	5.0	49	2	;
	100	137	210.20000000000002	5.0	50	2	;
	100	142	332.6	5.0	51	2	;
	101	138	454.3	5.0	52	2	;
	101	143	181.10000000000002	5.0	53	2	;
	102	144	271.40000000000003	5.0	54	2	;
	103	140	275.3	5.0	55	2	;
	104	141	319.8	5.0	56	2	;
	105	142	227.4	5.0	57	2	;
	106	143	299.1	5.0	58	2	;
	107	144	244.3	5.0	59	2	;
	109	146	279.5	5.0	0	3	;
	109	151	405.40000000000003	5.0	1	3	;
	110	147	215.5	5.0	2	3	;
	110	152	103.10000000000001	5.0	3	3	;
	111	148	398.3	5.0	4	3	;
	111	153	291.5	5.0	5	3	;
	112	149	494.1	5.0	6	3	;
	112	154	440.1	5.0	7	3	;
	113	150	144.6	5.0	8	3	;
	113	155	184.5	5.0	9	3	;
	114	156	293.5	5.0	10	3	;
	115	152	268.90000000000003	5.0	11	3	;
	115	157	361.70000000000005	5.0	12	3	;
	116	153	438.0	5.0	13	3	;
	116	158	127.5	5.0	14	3	;
	117	154	105.60000000000001	5.0	15	3	;
	117	159	444.6	5.0	16	3	;
	118	155	176.70000000000002	5.0	17	3	;
	118	160	471.8	5.0	18	3	;
	119	156	414.40000000000003	5.0	19	3	;
	119	161	131.70000000000002	5.0	20	3	;
	120	162	257.1	5.0	21	3	;
	121	158	459.0	5.0	22	3	;
	121	163	389.20000000000005	5.0	23	3	;
	122	159	185.8	5.0	24	3	;
	122	164	341.6	5.0	25	3	;
	123	160	452.90000000000003	5.0	26	3	;
	123	165	140.4	5.0	27	3	;
	124	161	169.8	5.0	28	3	;
	124	166	198.0	5.0	29	3	;
	125	162	456.70000000000005	5.0	30	3	;
	125	167	404.0	5.0	31	3	;
	126	168	134.9	5.0	32	3	;
	127	164	388.0	5.0	33	3	;
	127	169	198.4	5.0	34	3	;
	128	165	208.5	5.0	35	3	;
	128	170	468.5	5.0	36	3	;
	129	166	181.0	5.0	37	3	;
	129	171	169.4	5.0	38	3	;
	130	167	238.5	5.0	39	3	;
	130	172	353.40000000000003	5.0	40	3	;
	131	168	354.0	5.0	41	3	;
	131	173	110.2	5.0	42	3	;
	132	174	301.8	5.0	43	3	;
	133	170	121.2	5.0	44	3	;
	133	175	272.3	5.0	45	3	;
	134	171	441.90000000000003	5.0	46	3	;
	134	176	135.9	5.0	47	3	;
	135	172	292.2	5.0	48	3	;
	135	177	455.0	5.0	49	3	;
	136	173	210.20000000000002	5.0	50	3	;
	136	178	332.6	5.0	51	3	;
	137	174	454.3	5.0	52	3	;
	137	179	181.10000000000002	5.0	53	3	;
	138	180	271.40000000000003	5.0	54	3	;
	139	176	275.3	5.0	55	3	;
	140	177	319.8	5.0	56	3	;
	141	178	227.4	5.0	57	3	;
	142	179	299.1	5.0	58	3	;
	143	180	244.3	5.0	59	3	;
	145	182	279.5	5.0	0	4	;
	145	187	405.40000000000003	5.0	1	4	;
	146	183	215.5	5.0	2	4	;
	146	188	103.10000000000001	5.0	3	4	;
	147	184	398.3	5.0	4	4	;
	147	189	291.5	5.0	5	4	;
	148	185	494.1	5.0	6	4	;
	148	190	440.1	5.0	7	4	;
	149	186	144.6	5.0	8	4	;
	149	191	184.5	5.0	9	4	;
	150	192	293.5	5.0	10	4	;
	151	188	268.90000000000003	5.0	11	4	;
	151	193	361.70000000000005	5.0	12	4	;
	152	189	438.0	5.0	13	4	;
	152	194	127.5	5.0	14	4	;
	153	190	105.60000000000001	5.0	15	4	;
	153	195	444.6	5.0	16	4	;
	154	191	176.70000000000002	5.0	17	4	;
	154	196	471.8	5.0	18	4	;
	155	192	414.40000000000003	5.0	19	4	;
	155	197	131.70000000000002	5.0	20	4	;
	156	198	257.1	5.0	21	4	;
	157	194	459.0	5.0	22	4	;
	157	199	389.20000000000005	5.0	23	4	;
	158	195	185.8	5.0	24	4	;
	158	200	341.6	5.0	25	4	;
	159	196	452.90000000000003	5.0	26	4	;
	159	201	140.4	5.0	27	4	;
	160	197	169.8	5.0	28	4	;
	160	202	198.0	5.0	29	4	;
	161	198	456.70000000000005	5.0	30	4	;
	161	203	404.0	5.0	31	4	;
	162	204	134.9	5.0	32	4	;
	163	200	388.0	5.0	33	4	;
	163	205	198.4	5.0	34	4	;
	164	201	208.5	5.0	35	4	;
	164	206	468.5	5.0	36	4	;
	165	202	181.0	5.0	37	4	;
	165	207	169.4	5.0	38	4	;
	166	203	238.5	5.0	39	4	;
	166	208	353.40000000000003	5.0	40	4	;
	167	204	354.0	5.0	41	4	;
	167	209	110.2	5.0	42	4	;
	168	210	301.8	5.0	43	4	;
	169	206	121.2	5.0	44	4	;
	169	211	272.3	5.0	45	4	;
	170	207	441.90000000000003	5.0	46	4	;
	170	212	135.9	5.0	47	4	;
	171	208	292.2	5.0	48	4	;
	171	213	455.0	5.0	49	4	;
	172	209	210.20000000000002	5.0	50	4	;
	172	214	332.6	5.0	51	4	;
	173	210	454.3	5.0	52	4	;
	173	215	181.10000000000002	5.0	53	4	;
	174	216	271.40000000000003	5.0	54	4	;
	175	212	275.3	5.0	55	4	;
	176	213	319.8	5.0	56	4	;
	177	214	227.4	5.0	57	4	;
	178	215	299.1	5.0	58	4	;
	179	216	244.3	5.0	59	4	;
	181	218	279.5	5.0	0	5	;
	181	223	405.40000000000003	5.0	1	5	;
	182	219	215.5	5.0	2	5	;
	182	224	103.10000000000001	5.0	3	5	;
	183	220	398.3	5.0	4	5	;
	183	225	291.5	5.0	5	5	;
	184	221	494.1	5.0	6	5	;
	184	226	440.1	5.0	7	5	;
	185	222	144.6	5.0	8	5	;
	185	227	184.5	5.0	9	5	;
	186	228	293.5	5.0	10	5	;
	187	224	268.90000000000003	5.0	11	5	;
	187	229	361.70000000000005	5.0	12	5	;
	188	225	438.0	5.0	13	5	;
	188	230	127.5	5.0	14	5	;
	189	226	105.60000000000001	5.0	15	5	;
	189	231	444.6	5.0	16	5	;
	190	227	176.70000000000002	5.0	17	5	;
	190	232	471.8	5.0	18	5	;
	191	228	414.40000000000003	5.0	19	5	;
	191	233	131.70000000000002	5.0	20	5	;
	192	234	257.1	5.0	21	5	;
	193	230	459.0	5.0	22	5	;
	193	235	389.20000000000005	5.0	23	5	;
	194	231	185.8	5.0	24	5	;
	194	236	341.6	5.0	25	5	;
	195	232	452.90000000000003	5.0	26	5	;
	195	237	140.4	5.0	27	5	;
	196	233	169.8	5.0	28	5	;
	196	238	198.0	5.0	29	5	;
	197	234	456.70000000000005	5.0	30	5	;
	197	239	404.0	5.0	31	5	;
	198	240	134.9	5.0	32	5	;
	199	236	388.0	5.0	33	5	;
	199	241	198.4	5.0	34	5	;
	200	237	208.5	5.0	35	5	;
	200	242	468.5	5.0	36	5	;
	201	238	181.0	5.0	37	5	;
	201	243	169.4	5.0	38	5	;
	202	239	238.5	5.0	39	5	;
	202	244	353.40000000000003	5.0	40	5	;
	203	240	354.0	5.0	41	5	;
	203	245	110.2	5.0	42	5	;
	204	246	301.8	5.0	43	5	;
	205	242	121.2	5.0	44	5	;
	205	247	272.3	5.0	45	5	;
	206	243	441.90000000000003	5.0	46	5	;
	206	248	135.9	5.0	47	5	;
	207	244	292.2	5.0	48	5	;
	207	249	455.0	5.0	49	5	;
	208	245	210.20000000000002	5.0	50	5	;
	208	250	332.6	5.0	51	5	;
	209	246	454.3	5.0	52	5	;
	209	251	181.10000000000002	5.0	53	5	;
	210	252	271.40000000000003	5.0	54	5	;
	211	248	275.3	5.0	55	5	;
	212	249	319.8	5.0	56	5	;
	213	250	227.4	5.0	57	5	;
	214	251	299.1	5.0	58	5	;
	215	252	244.3	5.0	59	5	;
	217	254	279.5	5.0	0	6	;
	217	259	405.40000000000003	5.0	1	6	;
	218	255	215.5	5.0	2	6	;
	218	260	103.10000000000001	5.0	3	6	;
	219	256	398.3	5.0	4	6	;
	219	261	291.5	5.0	5	6	;
	220	257	494.1	5.0	6	6	;
	220	262	440.1	5.0	7	6	;
	221	258	144.6	5.0	8	6	;
	221	263	184.5	5.0	9	6	;
	222	264	293.5	5.0	10	6	;
	223	260	268.90000000000003	5.0	11	6	;
	223	265	361.70000000000005	5.0	12	6	;
	224	261	438.0	5.0	13	6	;
	224	266	127.5	5.0	14	6	;
	225	262	105.60000000000001	5.0	15	6	;
	225	267	444.6	5.0	16	6	;
	226	263	176.70000000000002	5.0	17	6	;
	226	268	471.8	5.0	18	6	;
	227	264	414.40000000000003	5.0	19	6	;
	227	269	131.70000000000002	5.0	20	6	;
	228	270	257.1	5.0	21	6	;
	229	266	459.0	5.0	22	6	;
	229	271	389.20000000000005	5.0	23	6	;
	230	267	185.8	5.0	24	6	;
	230	272	341.6	5.0	25	6	;
	231	268	452.90000000000003	5.0	26	6	;
	231	273	140.4	5.0	27	6	;
	232	269	169.8	5.0	28	6	;
	232	274	198.0	5.0	29	6	;
	233	270	456.70000000000005	5.0	30	6	;
	233	275	404.0	5.0	31	6	;
	234	276	134.9	5.0	32	6	;
	235	272	388.0	5.0	33	6	;
	235	277	198.4	5.0	34	6	;
	236	273	208.5	5.0	35	6	;
	236	278	468.5	5.0	36	6	;
	237	274	181.0	5.0	37	6	;
	237	279	169.4	5.0	38	6	;
	238	275	238.5	5.0	39	6	;
	238	280	353.40000000000003	5.0	40	6	;
	239	276	354.0	5.0	41	6	;
	239	281	110.2	5.0	42	6	;
	240	282	301.8	5.0	43	6	;
	241	278	121.2	5.0	44	6	;
	241	283	272.3	5.0	45	6	;
	242	279	441.90000000000003	5.0	46	6	;
	242	284	135.9	5.0	47	6	;
	243	280	292.2	5.0	48	6	;
	243	285	455.0	5.0	49	6	;
	244	281	210.20000000000002	5.0	50	6	;
	244	286	332.6	5.0	51	6	;
	245	282	454.3	5.0	52	6	;
	245	287	181.10000000000002	5.0	53	6	;
	246	288	271.40000000000003	5.0	54	6	;
	247	284	275.3	5.0	55	6	;
	248	285	319.8	5.0	56	6	;
	249	286	227.4	5.0	57	6	;
	250	287	299.1	5.0	58	6	;
	251	288	244.3	5.0	59	6	;
	253	290	279.5	5.0	0	7	;
	253	295	405.40000000000003	5.0	1	7	;
	254	291	215.5	5.0	2	7	;
	254	296	103.10000000000001	5.0	3	7	;
	255	292	398.3	5.0	4	7	;
	255	297	291.5	5.0	5	7	;
	256	293	494.1	5.0	6	7	;
	256	298	440.1	5.0	7	7	;
	257	294	144.6	5.0	8	7	;
	257	299	184.5	5.0	9	7	;
	258	300	293.5	5.0	10	7	;
	259	296	268.90000000000003	5.0	11	7	;
	259	301	361.70000000000005	5.0	12	7	;
	260	297	438.0	5.0	13	7	;
	260	302	127.5	5.0	14	7	;
	261	298	105.60000000000001	5.0	15	7	;
	261	303	444.6	5.0	16	7	;
	262	299	176.70000000000002	5.0	17	7	;
	262	304	471.8	5.0	18	7	;
	263	300	414.40000000000003	5.0	19	7	;
	263	305	131.70000000000002	5.0	20	7	;
	264	306	257.1	5.0	21	7	;
	265	302	459.0	5.0	22	7	;
	265	307	389.20000000000005	5.0	23	7	;
	266	303	185.8	5.0	24	7	;
	266	308	341.6	5.0	25	7	;
	267	304	452.90000000000003	5.0	26	7	;
	267	309	140.4	5.0	27	7	;
	268	305	169.8	5.0	28	7	;
	268	310	198.0	5.0	29	7	;
	269	306	456.70000000000005	5.0	30	7	;
	269	311	404.0	5.0	31	7	;
	270	312	134.9	5.0	32	7	;
	271	308	388.0	5.0	33	7	;
	271	313	198.4	5.0	34	7	;
	272	309	208.5	5.0	35	7	;
	272	314	468.5	5.0	36	7	;
	273	310	181.0	5.0	37	7	;
	273	315	169.4	5.0	38	7	;
	274	311	238.5	5.0	39	7	;
	274	316	353.40000000000003	5.0	40	7	;
	275	312	354.0	5.0	41	7	;
	275	317	110.2	5.0	42	7	;
	276	318	301.8	5.0	43	7	;
	277	314	121.2	5.0	44	7	;
	277	319	272.3	5.0	45	7	;
	278	315	441.90000000000003	5.0	46	7	;
	278	320	135.9	5.0	47	7	;
	279	316	292.2	5.0	48	7	;
	279	321	455.0	5.0	49	7	;
	280	317	210.20000000000002	5.0	50	7	;
	280	322	332.6	5.0	51	7	;
	281	318	454.3	5.0	52	7	;
	281	323	181.10000000000002	5.0	53	7	;
	282	324	271.40000000000003	5.0	54	7	;
	283	320	275.3	5.0	55	7	;
	284	321	319.8	5.0	56	7	;
	285	322	227.4	5.0	57	7	;
	286	323	299.1	5.0	58	7	;
	287	324	244.3	5.0	59	7	;
	289	326	279.5	5.0	0	8	;
	289	331	405.40000000000003	5.0	1	8	;
	290	327	215.5	5.0	2	8	;
	290	332	103.10000000000001	5.0	3	8	;
	291	328	398.3	5.0	4	8	;
	291	333	291.5	5.0	5	8	;
	292	329	494.1	5.0	6	8	;
	292	334	440.1	5.0	7	8	;
	293	330	144.6	5.0	8	8	;
	293	335	184.5	5.0	9	8	;
	294	336	293.5	5.0	10	8	;
	295	332	268.90000000000003	5.0	11	8	;
	295	337	361.70000000000005	5.0	12	8	;
	296	333	438.0	5.0	13	8	;
	296	338	127.5	5.0	14	8	;
	297	334	105.60000000000001	5.0	15	8	;
	297	339	444.6	5.0	16	8	;
	298	335	176.70000000000002	5.0	17	8	;
	298	340	471.8	5.0	18	8	;
	299	336	414.40000000000003	5.0	19	8	;
	299	341	131.70000000000002	5.0	20	8	;
	300	342	257.1	5.0	21	8	;
	301	338	459.0	5.0	22	8	;
	301	343	389.20000000000005	5.0	23	8	;
	302	339	185.8	5.0	24	8	;
	302	344	341.6	5.0	25	8	;
	303	340	452.90000000000003	5.0	26	8	;
	303	345	140.4	5.0	27	8	;
	304	341	169.8	5.0	28	8	;
	304	346	198.0	5.0	29	8	;
	305	342	456.70000000000005	5.0	30	8	;
	305	347	404.0	5.0	31	8	;
	306	348	134.9	5.0	32	8	;
	307	344	388.0	5.0	33	8	;
	307	349	198.4	5.0	34	8	;
	308	345	208.5	5.0	35	8	;
	308	350	468.5	5.0	36	8	;
	309	346	181.0	5.0	37	8	;
	309	351	169.4	5.0	38	8	;
	310	347	238.5	5.0	39	8	;
	310	352	353.40000000000003	5.0	40	8	;
	311	348	354.0	5.0	41	8	;
	311	353	110.2	5.0	42	8	;
	312	354	301.8	5.0	43	8	;
	313	350	121.2	5.0	44	8	;
	313	355	272.3	5.0	45	8	;
	314	351	441.90000000000003	5.0	46	8	;
	314	356	135.9	5.0	47	8	;
	315	352	292.2	5.0	48	8	;
	315	357	455.0	5.0	49	8	;
	316	353	210.20000000000002	5.0	50	8	;
	316	358	332.6	5.0	51	8	;
	317	354	454.3	5.0	52	8	;
	317	359	181.10000000000002	5.0	53	8	;
	318	360	271.40000000000003	5.0	54	8	;
	319	356	275.3	5.0	55	8	;
	320	357	319.8	5.0	56	8	;
	321	358	227.4	5.0	57	8	;
	322	359	299.1	5.0	58	8	;
	323	360	244.3	5.0	59	8	;
	325	362	279.5	5.0	0	9	;
	325	367	405.40000000000003	5.0	1	9	;
	326	363	215.5	5.0	2	9	;
	326	368	103.10000000000001	5.0	3	9	;
	327	364	398.3	5.0	4	9	;
	327	369	291.5	5.0	5	9	;
	328	365	494.1	5.0	6	9	;
	328	370	440.1	5.0	7	9	;
	329	366	144.6	5.0	8	9	;
	329	371	184.5	5.0	9	9	;
	330	372	293.5	5.0	10	9	;
	331	368	268.90000000000003	5.0	11	9	;
	331	373	361.70000000000005	5.0	12	9	;
	332	369	438.0	5.0	13	9	;
	332	374	127.5	5.0	14	9	;
	333	370	105.60000000000001	5.0	15	9	;
	333	375	444.6	5.0	16	9	;
	334	371	176.70000000000002	5.0	17	9	;
	334	376	471.8	5.0	18	9	;
	335	372	414.40000000000003	5.0	19	9	;
	335	377	131.70000000000002	5.0	20	9	;
	336	378	257.1	5.0	21	9	;
	337	374	459.0	5.0	22	9	;
	337	379	389.20000000000005	5.0	23	9	;
	338	375	185.8	5.0	24	9	;
	338	380	341.6	5.0	25	9	;
	339	376	452.90000000000003	5.0	26	9	;
	339	381	140.4	5.0	27	9	;
	340	377	169.8	5.0	28	9	;
	340	382	198.0	5.0	29	9	;
	341	378	456.70000000000005	5.0	30	9	;
	341	383	404.0	5.0	31	9	;
	342	384	134.9	5.0	32	9	;
	343	380	388.0	5.0	33	9	;
	343	385	198.4	5.0	34	9	;
	344	381	208.5	5.0	35	9	;
	344	386	468.5	5.0	36	9	;
	345	382	181.0	5.0	37	9	;
	345	387	169.4	5.0	38	9	;
	346	383	238.5	5.0	39	9	;
	346	388	353.40000000000003	5.0	40	9	;
	347	384	354.0	5.0	41	9	;
	347	389	110.2	5.0	42	9	;
	348	390	301.8	5.0	43	9	;
	349	386	121.2	5.0	44	9	;
	349	391	272.3	5.0	45	9	;
	350	387	441.90000000000003	5.0	46	9	;
	350	392	135.9	5.0	47	9	;
	351	388	292.2	5.0	48	9	;
	351	393	455.0	5.0	49	9	;
	352	389	210.20000000000002	5.0	50	9	;
	352	394	332.6	5.0	51	9	;
	353	390	454.3	5.0	52	9	;
	353	395	181.10000000000002	5.0	53	9	;
	354	396	271.40000000000003	5.0	54	9	;
	355	392	275.3	5.0	55	9	;
	356	393	319.8	5.0	56	9	;
	357	394	227.4	5.0	57	9	;
	358	395	299.1	5.0	58	9	;
	359	396	244.3	5.0	59	9	;
	361	398	279.5	5.0	0	10	;
	361	403	405.40000000000003	5.0	1	10	;
	362	399	215.5	5.0	2	10	;
	362	404	103.10000000000001	5.0	3	10	;
	363	400	398.3	5.0	4	10	;
	363	405	291.5	5.0	5	10	;
	364	401	494.1	5.0	6	10	;
	364	406	440.1	5.0	7	10	;
	365	402	144.6	5.0	8	10	;
	365	407	184.5	5.0	9	10	;
	366	408	293.5	5.0	10	10	;
	367	404	268.90000000000003	5.0	11	10	;
	367	409	361.70000000000005	5.0	12	10	;
	368	405	438.0	5.0	13	10	;
	368	410	127.5	5.0	14	10	;
	369	406	105.60000000000001	5.0	15	10	;
	369	411	444.6	5.0	16	10	;
	370	407	176.70000000000002	5.0	17	10	;
	370	412	471.8	5.0	18	10	;
	371	408	414.40000000000003	5.0	19	10	;
	371	413	131.70000000000002	5.0	20	10	;
	372	414	257.1	5.0	21	10	;
	373	410	459.0	5.0	22	10	;
	373	415	389.20000000000005	5.0	23	10	;
	374	411	185.8	5.0	24	10	;
	374	416	341.6	5.0	25	10	;
	375	412	452.90000000000003	5.0	26	10	;
	375	417	140.4	5.0	27	10	;
	376	413	169.8	5.0	28	10	;
	376	418	198.0	5.0	29	10	;
	377	414	456.70000000000005	5.0	30	10	;
	377	419	404.0	5.0	31	10	;
	378	420	134.9	5.0	32	10	;
	379	416	388.0	5.0	33	10	;
	379	421	198.4	5.0	34	10	;
	380	417	208.5	5.0	35	10	;
	380	422	468.5	5.0	36	10	;
	381	418	181.0	5.0	37	10	;
	381	423	169.4	5.0	38	10	;
	382	419	238.5	5.0	39	10	;
	382	424	353.40000000000003	5.0	40	10	;
	383	420	354.0	5.0	41	10	;
	383	425	110.2	5.0	42	10	;
	384	426	301.8	5.0	43	10	;
	385	422	121.2	5.0	44	10	;
	385	427	272.3	5.0	45	10	;
	386	423	441.90000000000003	5.0	46	10	;
	386	428	135.9	5.0	47	10	;
	387	424	292.2	5.0	48	10	;
	387	429	455.0	5.0	49	10	;
	388	425	210.20000000000002	5.0	50	10	;
	388	430	332.6	5.0	51	10	;
	389	426	454.3	5.0	52	10	;
	389	431	181.10000000000002	5.0	53	10	;
	390	432	271.40000000000003	5.0	54	10	;
	391	428	275.3	5.0	55	10	;
	392	429	319.8	5.0	56	10	;
	393	430	227.4	5.0	57	10	;
	394	431	299.1	5.0	58	10	;
	395	432	244.3	5.0	59	10	;
	397	434	279.5	5.0	0	11	;
	397	439	405.40000000000003	5.0	1	11	;
	398	435	215.5	5.0	2	11	;
	398	440	103.10000000000001	5.0	3	11	;
	399	436	398.3	5.0	4	11	;
	399	441	291.5	5.0	5	11	;
	400	437	494.1	5.0	6	11	;
	400	442	440.1	5.0	7	11	;
	401	438	144.6	5.0	8	11	;
	401	443	184.5	5.0	9	11	;
	402	444	293.5	5.0	10	11	;
	403	440	268.90000000000003	5.0	11	11	;
	403	445	361.70000000000005	5.0	12	11	;
	404	441	438.0	5.0	13	11	;
	404	446	127.5	5.0	14	11	;
	405	442	105.60000000000001	5.0	15	11	;
	405	447	444.6	5.0	16	11	;
	406	443	176.70000000000002	5.0	17	11	;
	406	448	471.8	5.0	18	11	;
	407	444	414.40000000000003	5.0	19	11	;
	407	449	131.70000000000002	5.0	20	11	;
	408	450	257.1	5.0	21	11	;
	409	446	459.0	5.0	22	11	;
	409	451	389.20000000000005	5.0	23	11	;
	410	447	185.8	5.0	24	11	;
	410	452	341.6	5.0	25	11	;
	411	448	452.90000000000003	5.0	26	11	;
	411	453	140.4	5.0	27	11	;
	412	449	169.8	5.0	28	11	;
	412	454	198.0	5.0	29	11	;
	413	450	456.70000000000005	5.0	30	11	;
	413	455	404.0	5.0	31	11	;
	414	456	134.9	5.0	32	11	;
	415	452	388.0	5.0	33	11	;
	415	457	198.4	5.0	34	11	;
	416	453	208.5	5.0	35	11	;
	416	458	468.5	5.0	36	11	;
	417	454	181.0	5.0	37	11	;
	417	459	169.4	5.0	38	11	;
	418	455	238.5	5.0	39	11	;
	418	460	353.40000000000003	5.0	40	11	;
	419	456	354.0	5.0	41	11	;
	419	461	110.2	5.0	42	11	;
	420	462	301.8	5.0	43	11	;
	421	458	121.2	5.0	44	11	;
	421	463	272.3	5.0	45	11	;
	422	459	441.90000000000003	5.0	46	11	;
	422	464	135.9	5.0	47	11	;
	423	460	292.2	5.0	48	11	;
	423	465	455.0	5.0	49	11	;
	424	461	210.20000000000002	5.0	50	11	;
	424	466	332.6	5.0	51	11	;
	425	462	454.3	5.0	52	11	;
	425	467	181.10000000000002	5.0	53	11	;
	426	468	271.40000000000003	5.0	54	11	;
	427	464	275.3	5.0	55	11	;
	428	465	319.8	5.0	56	11	;
	429	466	227.4	5.0	57	11	;
	430	467	299.1	5.0	58	11	;
	431	468	244.3	5.0	59	11	;
	433	470	279.5	5.0	0	12	;
	433	475	405.40000000000003	5.0	1	12	;
	434	471	215.5	5.0	2	12	;
	434	476	103.10000000000001	5.0	3	12	;
	435	472	398.3	5.0	4	12	;
	435	477	291.5	5.0	5	12	;
	436	473	494.1	5.0	6	12	;
	436	478	440.1	5.0	7	12	;
	437	474	144.6	5.0	8	12	;
	437	479	184.5	5.0	9	12	;
	438	480	293.5	5.0	10	12	;
	439	476	268.90000000000003	5.0	11	12	;
	439	481	361.70000000000005	5.0	12	12	;
	440	477	438.0	5.0	13	12	;
	440	482	127.5	5.0	14	12	;
	441	478	105.60000000000001	5.0	15	12	;
	441	483	444.6	5.0	16	12	;
	442	479	176.70000000000002	5.0	17	12	;
	442	484	471.8	5.0	18	12	;
	443	480	414.40000000000003	5.0	19	12	;
	443	485	131.70000000000002	5.0	20	12	;
	444	486	257.1	5.0	21	12	;
	445	482	459.0	5.0	22	12	;
	445	487	389.20000000000005	5.0	23	12	;
	446	483	185.8	5.0	24	12	;
	446	488	341.6	5.0	25	12	;
	447	484	452.90000000000003	5.0	26	12	;
	447	489	140.4	5.0	27	12	;
	448	485	169.8	5.0	28	12	;
	448	490	198.0	5.0	29	12	;
	449	486	456.70000000000005	5.0	30	12	;
	449	491	404.0	5.0	31	12	;
	450	492	134.9	5.0	32	12	;
	451	488	388.0	5.0	33	12	;
	451	493	198.4	5.0	34	12	;
	452	489	208.5	5.0	35	12	;
	452	494	468.5	5.0	36	12	;
	453	490	181.0	5.0	37	12	;
	453	495	169.4	5.0	38	12	;
	454	491	238.5	5.0	39	12	;
	454	496	353.40000000000003	5.0	40	12	;
	455	492	354.0	5.0	41	12	;
	455	497	110.2	5.0	42	12	;
	456	498	301.8	5.0	43	12	;
	457	494	121.2	5.0	44	12	;
	457	499	272.3	5.0	45	12	;
	458	495	441.90000000000003	5.0	46	12	;
	458	500	135.9	5.0	47	12	;
	459	496	292.2	5.0	48	12	;
	459	501	455.0	5.0	49	12	;
	460	497	210.20000000000002	5.0	50	12	;
	460	502	332.6	5.0	51	12	;
	461	498	454.3	5.0	52	12	;
	461	503	181.10000000000002	5.0	53	12	;
	462	504	271.40000000000003	5.0	54	12	;
	463	500	275.3	5.0	55	12	;
	464	501	319.8	5.0	56	12	;
	465	502	227.4	5.0	57	12	;
	466	503	299.1	5.0	58	12	;
	467	504	244.3	5.0	59	12	;
	469	506	279.5	5.0	0	13	;
	469	511	405.40000000000003	5.0	1	13	;
	470	507	215.5	5.0	2	13	;
	470	512	103.10000000000001	5.0	3	13	;
	471	508	398.3	5.0	4	13	;
	471	513	291.5	5.0	5	13	;
	472	509	494.1	5.0	6	13	;
	472	514	440.1	5.0	7	13	;
	473	510	144.6	5.0	8	13	;
	473	515	184.5	5.0	9	13	;
	474	516	293.5	5.0	10	13	;
	475	512	268.90000000000003	5.0	11	13	;
	475	517	361.70000000000005	5.0	12	13	;
	476	513	438.0	5.0	13	13	;
	476	518	127.5	5.0	14	13	;
	477	514	105.60000000000001	5.0	15	13	;
	477	519	444.6	5.0	16	13	;
	478	515	176.70000000000002	5.0	17	13	;
	478	520	471.8	5.0	18	13	;
	479	516	414.40000000000003	5.0	19	13	;
	479	521	131.70000000000002	5.0	20	13	;
	480	522	257.1	5.0	21	13	;
	481	518	459.0	5.0	22	13	;
	481	523	389.20000000000005	5.0	23	13	;
	482	519	185.8	5.0	24	13	;
	482	524	341.6	5.0	25	13	;
	483	520	452.90000000000003	5.0	26	13	;
	483	525	140.4	5.0	27	13	;
	484	521	169.8	5.0	28	13	;
	484	526	198.0	5.0	29	13	;
	485	522	456.70000000000005	5.0	30	13	;
	485	527	404.0	5.0	31	13	;
	486	528	134.9	5.0	32	13	;
	487	524	388.0	5.0	33	13	;
	487	529	198.4	5.0	34	13	;
	488	525	208.5	5.0	35	13	;
	488	530	468.5	5.0	36	13	;
	489	526	181.0	5.0	37	13	;
	489	531	169.4	5.0	38	13	;
	490	527	238.5	5.0	39	13	;
	490	532	353.40000000000003	5.0	40	13	;
	491	528	354.0	5.0	41	13	;
	491	533	110.2	5.0	42	13	;
	492	534	301.8	5.0	43	13	;
	493	530	121.2	5.0	44	13	;
	493	535	272.3	5.0	45	13	;
	494	531	441.90000000000003	5.0	46	13	;
	494	536	135.9	5.0	47	13	;
	495	532	292.2	5.0	48	13	;
	495	537	455.0	5.0	49	13	;
	496	533	210.20000000000002	5.0	50	13	;
	496	538	332.6	5.0	51	13	;
	497	534	454.3	5.0	52	13	;
	497	539	181.10000000000002	5.0	53	13	;
	498	540	271.40000000000003	5.0	54	13	;
	499	536	275.3	5.0	55	13	;
	500	537	319.8	5.0	56	13	;
	501	538	227.4	5.0	57	13	;
	502	539	299.1	5.0	58	13	;
	503	540	244.3	5.0	59	13	;
	505	542	279.5	5.0	0	14	;
	505	547	405.40000000000003	5.0	1	14	;
	506	543	215.5	5.0	2	14	;
	506	548	103.10000000000001	5.0	3	14	;
	507	544	398.3	5.0	4	14	;
	507	549	291.5	5.0	5	14	;
	508	545	494.1	5.0	6	14	;
	508	550	440.1	5.0	7	14	;
	509	546	144.6	5.0	8	14	;
	509	551	184.5	5.0	9	14	;
	510	552	293.5	5.0	10	14	;
	511	548	268.90000000000003	5.0	11	14	;
	511	553	361.70000000000005	5.0	12	14	;
	512	549	438.0	5.0	13	14	;
	512	554	127.5	5.0	14	14	;
	513	550	105.60000000000001	5.0	15	14	;
	513	555	444.6	5.0	16	14	;
	514	551	176.70000000000002	5.0	17	14	;
	514	556	471.8	5.0	18	14	;
	515	552	414.40000000000003	5.0	19	14	;
	515	557	131.70000000000002	5.0	20	14	;
	516	558	257.1	5.0	21	14	;
	517	554	459.0	5.0	22	14	;
	517	559	389.20000000000005	5.0	23	14	;
	518	555	185.8	5.0	24	14	;
	518	560	341.6	5.0	25	14	;
	519	556	452.90000000000003	5.0	26	14	;
	519	561	140.4	5.0	27	14	;
	520	557	169.8	5.0	28	14	;
	520	562	198.0	5.0	29	14	;
	521	558	456.70000000000005	5.0	30	14	;
	521	563	404.0	5.0	31	14	;
	522	564	134.9	5.0	32	14	;
	523	560	388.0	5.0	33	14	;
	523	565	198.4	5.0	34	14	;
	524	561	208.5	5.0	35	14	;
	524	566	468.5	5.0	36	14	;
	525	562	181.0	5.0	37	14	;
	525	567	169.4	5.0	38	14	;
	526	563	238.5	5.0	39	14	;
	526	568	353.40000000000003	5.0	40	14	;
	527	564	354.0	5.0	41	14	;
	527	569	110.2	5.0	42	14	;
	528	570	301.8	5.0	43	14	;
	529	566	121.2	5.0	44	14	;
	529	571	272.3	5.0	45	14	;
	530	567	441.90000000000003	5.0	46	14	;
	530	572	135.9	5.0	47	14	;
	531	568	292.2	5.0	48	14	;
	531	573	455.0	5.0	49	14	;
	532	569	210.20000000000002	5.0	50	14	;
	532	574	332.6	5.0	51	14	;
	533	570	454.3	5.0	52	14	;
	533	575	181.10000000000002	5.0	53	14	;
	534	576	271.40000000000003	5.0	54	14	;
	535	572	275.3	5.0	55	14	;
	536	573	319.8	5.0	56	14	;
	537	574	227.4	5.0	57	14	;
	538	575	299.1	5.0	58	14	;
	539	576	244.3	5.0	59	14	;
	541	578	279.5	5.0	0	15	;
	541	583	405.40000000000003	5.0	1	15	;
	542	579	215.5	5.0	2	15	;
	542	584	103.10000000000001	5.0	3	15	;
	543	580	398.3	5.0	4	15	;
	543	585	291.5	5.0	5	15	;
	544	581	494.1	5.0	6	15	;
	544	586	440.1	5.0	7	15	;
	545	582	144.6	5.0	8	15	;
	545	587	184.5	5.0	9	15	;
	546	588	293.5	5.0	10	15	;
	547	584	268.90000000000003	5.0	11	15	;
	547	589	361.70000000000005	5.0	12	15	;
	548	585	438.0	5.0	13	15	;
	548	590	127.5	5.0	14	15	;
	549	586	105.60000000000001	5.0	15	15	;
	549	591	444.6	5.0	16	15	;
	550	587	176.70000000000002	5.0	17	15	;
	550	592	471.8	5.0	18	15	;
	551	588	414.40000000000003	5.0	19	15	;
	551	593	131.70000000000002	5.0	20	15	;
	552	594	257.1	5.0	21	15	;
	553	590	459.0	5.0	22	15	;
	553	595	389.20000000000005	5.0	23	15	;
	554	591	185.8	5.0	24	15	;
	554	596	341.6	5.0	25	15	;
	555	592	452.90000000000003	5.0	26	15	;
	555	597	140.4	5.0	27	15	;
	556	593	169.8	5.0	28	15	;
	556	598	198.0	5.0	29	15	;
	557	594	456.70000000000005	5.0	30	15	;
	557	599	404.0	5.0	31	15	;
	558	600	134.9	5.0	32	15	;
	559	596	388.0	5.0	33	15	;
	559	601	198.4	5.0	34	15	;
	560	597	208.5	5.0	35	15	;
	560	602	468.5	5.0	36	15	;
	561	598	181.0	5.0	37	15	;
	561	603	169.4	5.0	38	15	;
	562	599	238.5	5.0	39	15	;
	562	604	353.40000000000003	5.0	40	15	;
	563	600	354.0	5.0	41	15	;
	563	605	110.2	5.0	42	15	;
	564	606	301.8	5.0	43	15	;
	565	602	121.2	5.0	44	15	;
	565	607	272.3	5.0	45	15	;
	566	603	441.90000000000003	5.0	46	15	;
	566	608	135.9	5.0	47	15	;
	567	604	292.2	5.0	48	15	;
	567	609	455.0	5.0	49	15	;
	568	605	210.20000000000002	5.0	50	15	;
	568	610	332.6	5.0	51	15	;
	569	606	454.3	5.0	52	15	;
	569	611	181.10000000000002	5.0	53	15	;
	570	612	271.40000000000003	5.0	54	15	;
	571	608	275.3	5.0	55	15	;
	572	609	319.8	5.0	56	15	;
	573	610	227.4	5.0	57	15	;
	574	611	299.1	5.0	58	15	;
	575	612	244.3	5.0	59	15	;
	577	614	279.5	5.0	0	16	;
	577	619	405.40000000000003	5.0	1	16	;
	578	615	215.5	5.0	2	16	;
	578	620	103.10000000000001	5.0	3	16	;
	579	616	398.3	5.0	4	16	;
	579	621	291.5	5.0	5	16	;
	580	617	494.1	5.0	6	16	;
	580	622	440.1	5.0	7	16	;
	581	618	144.6	5.0	8	16	;
	581	623	184.5	5.0	9	16	;
	582	624	293.5	5.0	10	16	;
	583	620	268.90000000000003	5.0	11	16	;
	583	625	361.70000000000005	5.0	12	16	;
	584	621	438.0	5.0	13	16	;
	584	626	127.5	5.0	14	16	;
	585	622	105.60000000000001	5.0	15	16	;
	585	627	444.6	5.0	16	16	;
	586	623	176.70000000000002	5.0	17	16	;
	586	628	471.8	5.0	18	16	;
	587	624	414.40000000000003	5.0	19	16	;
	587	629	131.70000000000002	5.0	20	16	;
	588	630	257.1	5.0	21	16	;
	589	626	459.0	5.0	22	16	;
	589	631	389.20000000000005	5.0	23	16	;
	590	627	185.8	5.0	24	16	;
	590	632	341.6	5.0	25	16	;
	591	628	452.90000000000003	5.0	26	16	;
	591	633	140.4	5.0	27	16	;
	592	629	169.8	5.0	28	16	;
	592	634	198.0	5.0	29	16	;
	593	630	456.70000000000005	5.0	30	16	;
	593	635	404.0	5.0	31	16	;
	594	636	134.9	5.0	32	16	;
	595	632	388.0	5.0	33	16	;
	595	637	198.4	5.0	34	16	;
	596	633	208.5	5.0	35	16	;
	596	638	468.5	5.0	36	16	;
	597	634	181.0	5.0	37	16	;
	597	639	169.4	5.0	38	16	;
	598	635	238.5	5.0	39	16	;
	598	640	353.40000000000003	5.0	40	16	;
	599	636	354.0	5.0	41	16	;
	599	641	110.2	5.0	42	16	;
	600	642	301.8	5.0	43	16	;
	601	638	121.2	5.0	44	16	;
	601	643	272.3	5.0	45	16	;
	602	639	441.90000000000003	5.0	46	16	;
	602	644	135.9	5.0	47	16	;
	603	640	292.2	5.0	48	16	;
	603	645	455.0	5.0	49	16	;
	604	641	210.20000000000002	5.0	50	16	;
	604	646	332.6	5.0	51	16	;
	605	642	454.3	5.0	52	16	;