<NUMBER OF ZONES> 9
<TOTAL OD FLOW> 10000
<END OF METADATA>



Origin  1
	10 :	152.0;	11 :	55.0;	12 :	180.0;	13 :	138.0;	14 :	55.0;
	15 :	167.0;	16 :	149.0;	17 :	102.0;	18 :	193.0;

Origin  2
	10 :	85.0;	11 :	49.0;	12 :	241.0;	13 :	138.0;	14 :	241.0;
	15 :	181.0;	16 :	151.0;	17 :	47.0;	18 :	213.0;

Origin  3
	10 :	111.0;	11 :	90.0;	12 :	13.0;	13 :	90.0;	14 :	159.0;
	15 :	82.0;	16 :	47.0;	17 :	134.0;	18 :	88.0;

Origin  4
	10 :	233.0;	11 :	240.0;	12 :	25.0;	13 :	183.0;	14 :	93.0;
	15 :	88.0;	16 :	129.0;	17 :	118.0;	18 :	160.0;

Origin  5
	10 :	23.0;	11 :	142.0;	12 :	186.0;	13 :	156.0;	14 :	174.0;
	15 :	117.0;	16 :	96.0;	17 :	132.0;	18 :	207.0;

Origin  6
	10 :	4.0;	11 :	113.0;	12 :	229.0;	13 :	59.0;	14 :	88.0;
	15 :	93.0;	16 :	59.0;	17 :	26.0;	18 :	156.0;

Origin  7
	10 :	115.0;	11 :	172.0;	12 :	20.0;	13 :	222.0;	14 :	21.0;
	15 :	243.0;	16 :	122.0;	17 :	127.0;	18 :	188.0;

Origin  8
	10 :	70.0;	11 :	247.0;	12 :	241.0;	13 :	184.0;	14 :	244.0;
	15 :	214.0;	16 :	54.0;	17 :	19.0;	18 :	32.0;

Origin  9
	10 :	43.0;	11 :	131.0;	12 :	5.0;	13 :	28.0;	14 :	150.0;
	15 :	141.0;	16 :	80.0;	17 :	200.0;	18 :	7.0;