<NUMBER OF ZONES> 8
<TOTAL OD FLOW> 10000.0
<END OF METADATA>



Origin  1
	5 :	722.0;	6 :	445.0;	7 :	934.0;	8 :	1188.0;

Origin  2
	5 :	104.0;	6 :	355.0;	7 :	216.0;	8 :	1162.0;

Origin  3
	5 :	312.0;	6 :	547.0;	7 :	427.0;	8 :	919.0;

Origin  4
	5 :	1027.0;	6 :	14.0;	7 :	1244.0;	8 :	384.0;