<NUMBER OF ZONES> 32
<NUMBER OF NODES> 320
<FIRST THRU NODE> 1
<NUMBER OF LINKS> 456
<ORIGINAL HEADER> 
<END OF METADATA>


~	init_node	term_node	capacity	free_flow_time	original_link	time	;
	1	18	1142.0	5.0	0	0	;
	1	21	3429.0	5.0	1	0	;
	2	19	1824.0	5.0	2	0	;
	2	22	4661.0	5.0	3	0	;
	3	20	4295.0	5.0	4	0	;
	3	23	2756.0	5.0	5	0	;
	4	24	3990.0	5.0	6	0	;
	5	22	4533.0	5.0	7	0	;
	5	25	1849.0	5.0	8	0	;
	6	23	1366.0	5.0	9	0	;
	6	26	4185.0	5.0	10	0	;
	7	24	3779.0	5.0	11	0	;
	7	27	1785.0	5.0	12	0	;
	8	28	3762.0	5.0	13	0	;
	9	26	3515.0	5.0	14	0	;
	9	29	2367.0	5.0	15	0	;
	10	27	3347.0	5.0	16	0	;
	10	30	4190.0	5.0	17	0	;
	11	28	2459.0	5.0	18	0	;
	11	31	2607.0	5.0	19	0	;
	12	32	2427.0	5.0	20	0	;
	13	30	3356.0	5.0	21	0	;
	14	31	1172.0	5.0	22	0	;
	15	32	3186.0	5.0	23	0	;
	17	34	1142.0	5.0	0	1	;
	17	37	3429.0	5.0	1	1	;
	18	35	1824.0	5.0	2	1	;
	18	38	4661.0	5.0	3	1	;
	19	36	4295.0	5.0	4	1	;
	19	39	2756.0	5.0	5	1	;
	20	40	3990.0	5.0	6	1	;
	21	38	4533.0	5.0	7	1	;
	21	41	1849.0	5.0	8	1	;
	22	39	1366.0	5.0	9	1	;
	22	42	4185.0	5.0	10	1	;
	23	40	3779.0	5.0	11	1	;
	23	43	1785.0	5.0	12	1	;
	24	44	3762.0	5.0	13	1	;
	25	42	3515.0	5.0	14	1	;
	25	45	2367.0	5.0	15	1	;
	26	43	3347.0	5.0	16	1	;
	26	46	4190.0	5.0	17	1	;
	27	44	2459.0	5.0	18	1	;
	27	47	2607.0	5.0	19	1	;
	28	48	2427.0	5.0	20	1	;
	29	46	3356.0	5.0	21	1	;
	30	47	1172.0	5.0	22	1	;
	31	48	3186.0	5.0	23	1	;
	33	50	1142.0	5.0	0	2	;
	33	53	3429.0	5.0	1	2	;
	34	51	1824.0	5.0	2	2	;
	34	54	4661.0	5.0	3	2	;
	35	52	4295.0	5.0	4	2	;
	35	55	2756.0	5.0	5	2	;
	36	56	3990.0	5.0	6	2	;
	37	54	4533.0	5.0	7	2	;
	37	57	1849.0	5.0	8	2	;
	38	55	1366.0	5.0	9	2	;
	38	58	4185.0	5.0	10	2	;
	39	56	3779.0	5.0	11	2	;
	39	59	1785.0	5.0	12	2	;
	40	60	3762.0	5.0	13	2	;
	41	58	3515.0	5.0	14	2	;
	41	61	2367.0	5.0	15	2	;
	42	59	3347.0	5.0	16	2	;
	42	62	4190.0	5.0	17	2	;
	43	60	2459.0	5.0	18	2	;
	43	63	2607.0	5.0	19	2	;
	44	64	2427.0	5.0	20	2	;
	45	62	3356.0	5.0	21	2	;
	46	63	1172.0	5.0	22	2	;
	47	64	3186.0	5.0	23	2	;
	49	66	1142.0	5.0	0	3	;
	49	69	3429.0	5.0	1	3	;
	50	67	1824.0	5.0	2	3	;
	50	70	4661.0	5.0	3	3	;
	51	68	4295.0	5.0	4	3	;
	51	71	2756.0	5.0	5	3	;
	52	72	3990.0	5.0	6	3	;
	53	70	4533.0	5.0	7	3	;
	53	73	1849.0	5.0	8	3	;
	54	71	1366.0	5.0	9	3	;
	54	74	4185.0	5.0	10	3	;
	55	72	3779.0	5.0	11	3	;
	55	75	1785.0	5.0	12	3	;
	56	76	3762.0	5.0	13	3	;
	57	74	3515.0	5.0	14	3	;
	57	77	2367.0	5.0	15	3	;
	58	75	3347.0	5.0	16	3	;
	58	78	4190.0	5.0	17	3	;
	59	76	2459.0	5.0	18	3	;
	59	79	2607.0	5.0	19	3	;
	60	80	2427.0	5.0	20	3	;
	61	78	3356.0	5.0	21	3	;
	62	79	1172.0	5.0	22	3	;
	63	80	3186.0	5.0	23	3	;
	65	82	1142.0	5.0	0	4	;
	65	85	3429.0	5.0	1	4	;
	66	83	1824.0	5.0	2	4	;
	66	86	4661.0	5.0	3	4	;
	67	84	4295.0	5.0	4	4	;
	67	87	2756.0	5.0	5	4	;
	68	88	3990.0	5.0	6	4	;
	69	86	4533.0	5.0	7	4	;
	69	89	1849.0	5.0	8	4	;
	70	87	1366.0	5.0	9	4	;
	70	90	4185.0	5.0	10	4	;
	71	88	3779.0	5.0	11	4	;
	71	91	1785.0	5.0	12	4	;
	72	92	3762.0	5.0	13	4	;
	73	90	3515.0	5.0	14	4	;
	73	93	2367.0	5.0	15	4	;
	74	91	3347.0	5.0	16	4	;
	74	94	4190.0	5.0	17	4	;
	75	92	2459.0	5.0	18	4	;
	75	95	2607.0	5.0	19	4	;
	76	96	2427.0	5.0	20	4	;
	77	94	3356.0	5.0	21	4	;
	78	95	1172.0	5.0	22	4	;
	79	96	3186.0	5.0	23	4	;
	81	98	1142.0	5.0	0	5	;
	81	101	3429.0	5.0	1	5	;
	82	99	1824.0	5.0	2	5	;
	82	102	4661.0	5.0	3	5	;
	83	100	4295.0	5.0	4	5	;
	83	103	2756.0	5.0	5	5	;
	84	104	3990.0	5.0	6	5	;
	85	102	4533.0	5.0	7	5	;
	85	105	1849.0	5.0	8	5	;
	86	103	1366.0	5.0	9	5	;
	86	106	4185.0	5.0	10	5	;
	87	104	3779.0	5.0	11	5	;
	87	107	1785.0	5.0	12	5	;
	88	108	3762.0	5.0	13	5	;
	89	106	3515.0	5.0	14	5	;
	89	109	2367.0	5.0	15	5	;
	90	107	3347.0	5.0	16	5	;
	90	110	4190.0	5.0	17	5	;
	91	108	2459.0	5.0	18	5	;
	91	111	2607.0	5.0	19	5	;
	92	112	2427.0	5.0	20	5	;
	93	110	3356.0	5.0	21	5	;
	94	111	1172.0	5.0	22	5	;
	95	112	3186.0	5.0	23	5	;
	97	114	1142.0	5.0	0	6	;
	97	117	3429.0	5.0	1	6	;
	98	115	1824.0	5.0	2	6	;
	98	118	4661.0	5.0	3	6	;
	99	116	4295.0	5.0	4	6	;
	99	119	2756.0	5.0	5	6	;
	100	120	3990.0	5.0	6	6	;
	101	118	4533.0	5.0	7	6	;
	101	121	1849.0	5.0	8	6	;
	102	119	1366.0	5.0	9	6	;
	102	122	4185.0	5.0	10	6	;
	103	120	3779.0	5.0	11	6	;
	103	123	1785.0	5.0	12	6	;
	104	124	3762.0	5.0	13	6	;
	105	122	3515.0	5.0	14	6	;
	105	125	2367.0	5.0	15	6	;
	106	123	3347.0	5.0	16	6	;
	106	126	4190.0	5.0	17	6	;
	107	124	2459.0	5.0	18	6	;
	107	127	2607.0	5.0	19	6	;
	108	128	2427.0	5.0	20	6	;
	109	126	3356.0	5.0	21	6	;
	110	127	1172.0	5.0	22	6	;
	111	128	3186.0	5.0	23	6	;
	113	130	1142.0	5.0	0	7	;
	113	133	3429.0	5.0	1	7	;
	114	131	1824.0	5.0	2	7	;
	114	134	4661.0	5.0	3	7	;
	115	132	4295.0	5.0	4	7	;
	115	135	2756.0	5.0	5	7	;
	116	136	3990.0	5.0	6	7	;
	117	134	4533.0	5.0	7	7	;
	117	137	1849.0	5.0	8	7	;
	118	135	1366.0	5.0	9	7	;
	118	138	4185.0	5.0	10	7	;
	119	136	3779.0	5.0	11	7	;
	119	139	1785.0	5.0	12	7	;
	120	140	3762.0	5.0	13	7	;
	121	138	3515.0	5.0	14	7	;
	121	141	2367.0	5.0	15	7	;
	122	139	3347.0	5.0	16	7	;
	122	142	4190.0	5.0	17	7	;
	123	140	2459.0	5.0	18	7	;
	123	143	2607.0	5.0	19	7	;
	124	144	2427.0	5.0	20	7	;
	125	142	3356.0	5.0	21	7	;
	126	143	1172.0	5.0	22	7	;
	127	144	3186.0	5.0	23	7	;
	129	146	1142.0	5.0	0	8	;
	129	149	3429.0	5.0	1	8	;
	130	147	1824.0	5.0	2	8	;
	130	150	4661.0	5.0	3	8	;
	131	148	4295.0	5.0	4	8	;
	131	151	2756.0	5.0	5	8	;
	132	152	3990.0	5.0	6	8	;
	133	150	4533.0	5.0	7	8	;
	133	153	1849.0	5.0	8	8	;
	134	151	1366.0	5.0	9	8	;
	134	154	4185.0	5.0	10	8	;
	135	152	3779.0	5.0	11	8	;
	135	155	1785.0	5.0	12	8	;
	136	156	3762.0	5.0	13	8	;
	137	154	3515.0	5.0	14	8	;
	137	157	2367.0	5.0	15	8	;
	138	155	3347.0	5.0	16	8	;
	138	158	4190.0	5.0	17	8	;
	139	156	2459.0	5.0	18	8	;
	139	159	2607.0	5.0	19	8	;
	140	160	2427.0	5.0	20	8	;
	141	158	3356.0	5.0	21	8	;
	142	159	1172.0	5.0	22	8	;
	143	160	3186.0	5.0	23	8	;
	145	162	1142.0	5.0	0	9	;
	145	165	3429.0	5.0	1	9	;
	146	163	1824.0	5.0	2	9	;
	146	166	4661.0	5.0	3	9	;
	147	164	4295.0	5.0	4	9	;
	147	167	2756.0	5.0	5	9	;
	148	168	3990.0	5.0	6	9	;
	149	166	4533.0	5.0	7	9	;
	149	169	1849.0	5.0	8	9	;
	150	167	1366.0	5.0	9	9	;
	150	170	4185.0	5.0	10	9	;
	151	168	3779.0	5.0	11	9	;
	151	171	1785.0	5.0	12	9	;
	152	172	3762.0	5.0	13	9	;
	153	170	3515.0	5.0	14	9	;
	153	173	2367.0	5.0	15	9	;
	154	171	3347.0	5.0	16	9	;
	154	174	4190.0	5.0	17	9	;
	155	172	2459.0	5.0	18	9	;
	155	175	2607.0	5.0	19	9	;
	156	176	2427.0	5.0	20	9	;
	157	174	3356.0	5.0	21	9	;
	158	175	1172.0	5.0	22	9	;
	159	176	3186.0	5.0	23	9	;
	161	178	1142.0	5.0	0	10	;
	161	181	3429.0	5.0	1	10	;
	162	179	1824.0	5.0	2	10	;
	162	182	4661.0	5.0	3	10	;
	163	180	4295.0	5.0	4	10	;
	163	183	2756.0	5.0	5	10	;
	164	184	3990.0	5.0	6	10	;
	165	182	4533.0	5.0	7	10	;
	165	185	1849.0	5.0	8	10	;
	166	183	1366.0	5.0	9	10	;
	166	186	4185.0	5.0	10	10	;
	167	184	3779.0	5.0	11	10	;
	167	187	1785.0	5.0	12	10	;
	168	188	3762.0	5.0	13	10	;
	169	186	3515.0	5.0	14	10	;
	169	189	2367.0	5.0	15	10	;
	170	187	3347.0	5.0	16	10	;
	170	190	4190.0	5.0	17	10	;
	171	188	2459.0	5.0	18	10	;
	171	191	2607.0	5.0	19	10	;
	172	192	2427.0	5.0	20	10	;
	173	190	3356.0	5.0	21	10	;
	174	191	1172.0	5.0	22	10	;
	175	192	3186.0	5.0	23	10	;
	177	194	1142.0	5.0	0	11	;
	177	197	3429.0	5.0	1	11	;
	178	195	1824.0	5.0	2	11	;
	178	198	4661.0	5.0	3	11	;
	179	196	4295.0	5.0	4	11	;
	179	199	2756.0	5.0	5	11	;
	180	200	3990.0	5.0	6	11	;
	181	198	4533.0	5.0	7	11	;
	181	201	1849.0	5.0	8	11	;
	182	199	1366.0	5.0	9	11	;
	182	202	4185.0	5.0	10	11	;
	183	200	3779.0	5.0	11	11	;
	183	203	1785.0	5.0	12	11	;
	184	204	3762.0	5.0	13	11	;
	185	202	3515.0	5.0	14	11	;
	185	205	2367.0	5.0	15	11	;
	186	203	3347.0	5.0	16	11	;
	186	206	4190.0	5.0	17	11	;
	187	204	2459.0	5.0	18	11	;
	187	207	2607.0	5.0	19	11	;
	188	208	2427.0	5.0	20	11	;
	189	206	3356.0	5.0	21	11	;
	190	207	1172.0	5.0	22	11	;
	191	208	3186.0	5.0	23	11	;
	193	210	1142.0	5.0	0	12	;
	193	213	3429.0	5.0	1	12	;
	194	211	1824.0	5.0	2	12	;
	194	214	4661.0	5.0	3	12	;
	195	212	4295.0	5.0	4	12	;
	195	215	2756.0	5.0	5	12	;
	196	216	3990.0	5.0	6	12	;
	197	214	4533.0	5.0	7	12	;
	197	217	1849.0	5.0	8	12	;
	198	215	1366.0	5.0	9	12	;
	198	218	4185.0	5.0	10	12	;
	199	216	3779.0	5.0	11	12	;
	199	219	1785.0	5.0	12	12	;
	200	220	3762.0	5.0	13	12	;
	201	218	3515.0	5.0	14	12	;
	201	221	2367.0	5.0	15	12	;
	202	219	3347.0	5.0	16	12	;
	202	222	4190.0	5.0	17	12	;
	203	220	2459.0	5.0	18	12	;
	203	223	2607.0	5.0	19	12	;
	204	224	2427.0	5.0	20	12	;
	205	222	3356.0	5.0	21	12	;
	206	223	1172.0	5.0	22	12	;
	207	224	3186.0	5.0	23	12	;
	209	226	1142.0	5.0	0	13	;
	209	229	3429.0	5.0	1	13	;
	210	227	1824.0	5.0	2	13	;
	210	230	4661.0	5.0	3	13	;
	211	228	4295.0	5.0	4	13	;
	211	231	2756.0	5.0	5	13	;
	212	232	3990.0	5.0	6	13	;
	213	230	4533.0	5.0	7	13	;
	213	233	1849.0	5.0	8	13	;
	214	231	1366.0	5.0	9	13	;
	214	234	4185.0	5.0	10	13	;
	215	232	3779.0	5.0	11	13	;
	215	235	1785.0	5.0	12	13	;
	216	236	3762.0	5.0	13	13	;
	217	234	3515.0	5.0	14	13	;
	217	237	2367.0	5.0	15	13	;
	218	235	3347.0	5.0	16	13	;
	218	238	4190.0	5.0	17	13	;
	219	236	2459.0	5.0	18	13	;
	219	239	2607.0	5.0	19	13	;
	220	240	2427.0	5.0	20	13	;
	221	238	3356.0	5.0	21	13	;
	222	239	1172.0	5.0	22	13	;
	223	240	3186.0	5.0	23	13	;
	225	242	1142.0	5.0	0	14	;
	225	245	3429.0	5.0	1	14	;
	226	243	1824.0	5.0	2	14	;
	226	246	4661.0	5.0	3	14	;
	227	244	4295.0	5.0	4	14	;
	227	247	2756.0	5.0	5	14	;
	228	248	3990.0	5.0	6	14	;
	229	246	4533.0	5.0	7	14	;
	229	249	1849.0	5.0	8	14	;
	230	247	1366.0	5.0	9	14	;
	230	250	4185.0	5.0	10	14	;
	231	248	3779.0	5.0	11	14	;
	231	251	1785.0	5.0	12	14	;
	232	252	3762.0	5.0	13	14	;
	233	250	3515.0	5.0	14	14	;
	233	253	2367.0	5.0	15	14	;
	234	251	3347.0	5.0	16	14	;
	234	254	4190.0	5.0	17	14	;
	235	252	2459.0	5.0	18	14	;
	235	255	2607.0	5.0	19	14	;
	236	256	2427.0	5.0	20	14	;
	237	254	3356.0	5.0	21	14	;
	238	255	1172.0	5.0	22	14	;
	239	256	3186.0	5.0	23	14	;
	241	258	1142.0	5.0	0	15	;
	241	261	3429.0	5.0	1	15	;
	242	259	1824.0	5.0	2	15	;
	242	262	4661.0	5.0	3	15	;
	243	260	4295.0	5.0	4	15	;
	243	263	2756.0	5.0	5	15	;
	244	264	3990.0	5.0	6	15	;
	245	262	4533.0	5.0	7	15	;
	245	265	1849.0	5.0	8	15	;
	246	263	1366.0	5.0	9	15	;
	246	266	4185.0	5.0	10	15	;
	247	264	3779.0	5.0	11	15	;
	247	267	1785.0	5.0	12	15	;
	248	268	3762.0	5.0	13	15	;
	249	266	3515.0	5.0	14	15	;
	249	269	2367.0	5.0	15	15	;
	250	267	3347.0	5.0	16	15	;
	250	270	4190.0	5.0	17	15	;
	251	268	2459.0	5.0	18	15	;
	251	271	2607.0	5.0	19	15	;
	252	272	2427.0	5.0	20	15	;
	253	270	3356.0	5.0	21	15	;
	254	271	1172.0	5.0	22	15	;
	255	272	3186.0	5.0	23	15	;
	257	274	1142.0	5.0	0	16	;
	257	277	3429.0	5.0	1	16	;
	258	275	1824.0	5.0	2	16	;
	258	278	4661.0	5.0	3	16	;
	259	276	4295.0	5.0	4	16	;
	259	279	2756.0	5.0	5	16	;
	260	280	3990.0	5.0	6	16	;
	261	278	4533.0	5.0	7	16	;
	261	281	1849.0	5.0	8	16	;
	262	279	1366.0	5.0	9	16	;
	262	282	4185.0	5.0	10	16	;
	263	280	3779.0	5.0	11	16	;
	263	283	1785.0	5.0	12	16	;
	264	284	3762.0	5.0	13	16	;
	265	282	3515.0	5.0	14	16	;
	265	285	2367.0	5.0	15	16	;
	266	283	3347.0	5.0	16	16	;
	266	286	4190.0	5.0	17	16	;
	267	284	2459.0	5.0	18	16	;
	267	287	2607.0	5.0	19	16	;
	268	288	2427.0	5.0	20	16	;
	269	286	3356.0	5.0	21	16	;
	270	287	1172.0	5.0	22	16	;
	271	288	3186.0	5.0	23	16	;
	273	290	1142.0	5.0	0	17	;
	273	293	3429.0	5.0	1	17	;
	274	291	1824.0	5.0	2	17	;
	274	294	4661.0	5.0	3	17	;
	275	292	4295.0	5.0	4	17	;
	275	295	2756.0	5.0	5	17	;
	276	296	3990.0	5.0	6	17	;
	277	294	4533.0	5.0	7	17	;
	277	297	1849.0	5.0	8	17	;
	278	295	1366.0	5.0	9	17	;
	278	298	4185.0	5.0	10	17	;
	279	296	3779.0	5.0	11	17	;
	279	299	1785.0	5.0	12	17	;
	280	300	3762.0	5.0	13	17	;
	281	298	3515.0	5.0	14	17	;
	281	301	2367.0	5.0	15	17	;
	282	299	3347.0	5.0	16	17	;
	282	302	4190.0	5.0	17	17	;
	283	300	2459.0	5.0	18	17	;
	283	303	2607.0	5.0	19	17	;
	284	304	2427.0	5.0	20	17	;
	285	302	3356.0	5.0	21	17	;
	286	303	1172.0	5.0	22	17	;
	287	304	3186.0	5.0	23	17	;
	289	306	1142.0	5.0	0	18	;
	289	309	3429.0	5.0	1	18	;
	290	307	1824.0	5.0	2	18	;
	290	310	4661.0	5.0	3	18	;
	291	308	4295.0	5.0	4	18	;
	291	311	2756.0	5.0	5	18	;
	292	312	3990.0	5.0	6	18	;
	293	310	4533.0	5.0	7	18	;
	293	313	1849.0	5.0	8	18	;
	294	311	1366.0	5.0	9	18	;
	294	314	4185.0	5.0	10	18	;
	295	312	3779.0	5.0	11	18	;
	295	315	1785.0	5.0	12	18	;
	296	316	3762.0	5.0	13	18	;
	297	314	3515.0	5.0	14	18	;
	297	317	2367.0	5.0	15	18	;
	298	315	3347.0	5.0	16	18	;
	298	318	4190.0	5.0	17	18	;
	299	316	2459.0	5.0	18	18	;
	299	319	2607.0	5.0	19	18	;
	300	320	2427.0	5.0	20	18	;
	301	318	3356.0	5.0	21	18	;
	302	319	1172.0	5.0	22	18	;
	303	320	3186.0	5.0	23	18	;