<NUMBER OF ZONES> 8
<TOTAL OD FLOW> 1000.0
<END OF METADATA>



Origin  1
	5 :	85.95183220528614;	6 :	17.004577563102917;	7 :	24.28403486677886;	8 :	49.914822674868624;

Origin  2
	5 :	107.29128026567165;	6 :	2.622603655657175;	7 :	48.865203138939194;	8 :	118.70858353804032;

Origin  3
	5 :	137.5001350928625;	6 :	7.347924178099066;	7 :	75.85315965040813;	8 :	85.3087414234362;

Origin  4
	5 :	32.731298850086255;	6 :	57.28151617134365;	7 :	47.40417774750557;	8 :	101.93010897791352;