<NUMBER OF ZONES> 12
<TOTAL OD FLOW> 10000.0
<END OF METADATA>



Origin  1
	7 :	65.0;	8 :	473.0;	9 :	443.0;	10 :	333.0;	11 :	213.0;
	12 :	133.0;

Origin  2
	7 :	489.0;	8 :	387.0;	9 :	321.0;	10 :	75.0;	11 :	261.0;
	12 :	199.0;

Origin  3
	7 :	288.0;	8 :	328.0;	9 :	192.0;	10 :	489.0;	11 :	449.0;
	12 :	376.0;

Origin  4
	7 :	215.0;	8 :	77.0;	9 :	406.0;	10 :	148.0;	11 :	300.0;
	12 :	173.0;

Origin  5
	7 :	283.0;	8 :	414.0;	9 :	220.0;	10 :	388.0;	11 :	127.0;
	12 :	214.0;

Origin  6
	7 :	281.0;	8 :	224.0;	9 :	148.0;	10 :	474.0;	11 :	54.0;
	12 :	340.0;