<NUMBER OF ZONES> 8
<NUMBER OF NODES> 40
<FIRST THRU NODE> 1
<NUMBER OF LINKS> 90
<ORIGINAL HEADER> 
<END OF METADATA>


~	init_node	term_node	capacity	free_flow_time	original_link	time	;
	1	6	60.0	1.5	0	0	;
	1	7	40.0	3.0	1	0	;
	2	7	30.0	1.0	2	0	;
	2	8	30.0	5.0	3	0	;
	3	8	70.0	3.5	4	0	;
	2	5	60.0	1.5	5	0	;
	3	5	40.0	3.0	6	0	;
	3	6	30.0	1.0	7	0	;
	4	6	30.0	5.0	8	0	;
	4	7	70.0	3.5	9	0	;
	5	10	60.0	1.5	0	1	;
	5	11	40.0	3.0	1	1	;
	6	11	30.0	1.0	2	1	;
	6	12	30.0	5.0	3	1	;
	7	12	70.0	3.5	4	1	;
	6	9	60.0	1.5	5	1	;
	7	9	40.0	3.0	6	1	;
	7	10	30.0	1.0	7	1	;
	8	10	30.0	5.0	8	1	;
	8	11	70.0	3.5	9	1	;
	9	14	60.0	1.5	0	2	;
	9	15	40.0	3.0	1	2	;
	10	15	30.0	1.0	2	2	;
	10	16	30.0	5.0	3	2	;
	11	16	70.0	3.5	4	2	;
	10	13	60.0	1.5	5	2	;
	11	13	40.0	3.0	6	2	;
	11	14	30.0	1.0	7	2	;
	12	14	30.0	5.0	8	2	;
	12	15	70.0	3.5	9	2	;
	13	18	60.0	1.5	0	3	;
	13	19	40.0	3.0	1	3	;
	14	19	30.0	1.0	2	3	;
	14	20	30.0	5.0	3	3	;
	15	20	70.0	3.5	4	3	;
	14	17	60.0	1.5	5	3	;
	15	17	40.0	3.0	6	3	;
	15	18	30.0	1.0	7	3	;
	16	18	30.0	5.0	8	3	;
	16	19	70.0	3.5	9	3	;
	17	22	60.0	1.5	0	4	;
	17	23	40.0	3.0	1	4	;
	18	23	30.0	1.0	2	4	;
	18	24	30.0	5.0	3	4	;
	19	24	70.0	3.5	4	4	;
	18	21	60.0	1.5	5	4	;
	19	21	40.0	3.0	6	4	;
	19	22	30.0	1.0	7	4	;
	20	22	30.0	5.0	8	4	;
	20	23	70.0	3.5	9	4	;
	21	26	60.0	1.5	0	5	;
	21	27	40.0	3.0	1	5	;
	22	27	30.0	1.0	2	5	;
	22	28	30.0	5.0	3	5	;
	23	28	70.0	3.5	4	5	;
	22	25	60.0	1.5	5	5	;
	23	25	40.0	3.0	6	5	;
	23	26	30.0	1.0	7	5	;
	24	26	30.0	5.0	8	5	;
	24	27	70.0	3.5	9	5	;
	25	30	60.0	1.5	0	6	;
	25	31	40.0	3.0	1	6	;
	26	31	30.0	1.0	2	6	;
	26	32	30.0	5.0	3	6	;
	27	32	70.0	3.5	4	6	;
	26	29	60.0	1.5	5	6	;
	27	29	40.0	3.0	6	6	;
	27	30	30.0	1.0	7	6	;
	28	30	30.0	5.0	8	6	;
	28	31	70.0	3.5	9	6	;
	29	34	60.0	1.5	0	7	;
	29	35	40.0	3.0	1	7	;
	30	35	30.0	1.0	2	7	;
	30	36	30.0	5.0	3	7	;
	31	36	70.0	3.5	4	7	;
	30	33	60.0	1.5	5	7	;
	31	33	40.0	3.0	6	7	;
	31	34	30.0	1.0	7	7	;
	32	34	30.0	5.0	8	7	;
	32	35	70.0	3.5	9	7	;
	33	38	60.0	1.5	0	8	;
	33	39	40.0	3.0	1	8	;
	34	39	30.0	1.0	2	8	;
	34	40	30.0	5.0	3	8	;
	35	40	70.0	3.5	4	8	;
	34	37	60.0	1.5	5	8	;
	35	37	40.0	3.0	6	8	;
	35	38	30.0	1.0	7	8	;
	36	38	30.0	5.0	8	8	;
	36	39	70.0	3.5	9	8	;