<NUMBER OF ZONES> 36
<NUMBER OF NODES> 36
<FIRST THRU NODE> 1
<NUMBER OF LINKS> 60
<ORIGINAL HEADER> 
<END OF METADATA>


~	init_node	term_node	capacity	free_flow_time	;
	1	2	2795.0	5.0	;
	1	7	4054.0	5.0	;
	2	3	2155.0	5.0	;
	2	8	1031.0	5.0	;
	3	4	3983.0	5.0	;
	3	9	2915.0	5.0	;
	4	5	4941.0	5.0	;
	4	10	4401.0	5.0	;
	5	6	1446.0	5.0	;
	5	11	1845.0	5.0	;
	6	12	2935.0	5.0	;
	7	8	2689.0	5.0	;
	7	13	3617.0	5.0	;
	8	9	4380.0	5.0	;
	8	14	1275.0	5.0	;
	9	10	1056.0	5.0	;
	9	15	4446.0	5.0	;
	10	11	1767.0	5.0	;
	10	16	4718.0	5.0	;
	11	12	4144.0	5.0	;
	11	17	1317.0	5.0	;
	12	18	2571.0	5.0	;
	13	14	4590.0	5.0	;
	13	19	3892.0	5.0	;
	14	15	1858.0	5.0	;
	14	20	3416.0	5.0	;
	15	16	4529.0	5.0	;
	15	21	1404.0	5.0	;
	16	17	1698.0	5.0	;
	16	22	1980.0	5.0	;
	17	18	4567.0	5.0	;
	17	23	4040.0	5.0	;
	18	24	1349.0	5.0	;
	19	20	3880.0	5.0	;
	19	25	1984.0	5.0	;
	20	21	2085.0	5.0	;
	20	26	4685.0	5.0	;
	21	22	1810.0	5.0	;
	21	27	1694.0	5.0	;
	22	23	2385.0	5.0	;
	22	28	3534.0	5.0	;
	23	24	3540.0	5.0	;
	23	29	1102.0	5.0	;
	24	30	3018.0	5.0	;
	25	26	1212.0	5.0	;
	25	31	2723.0	5.0	;
	26	27	4419.0	5.0	;
	26	32	1359.0	5.0	;
	27	28	2922.0	5.0	;
	27	33	4550.0	5.0	;
	28	29	2102.0	5.0	;
	28	34	3326.0	5.0	;
	29	30	4543.0	5.0	;
	29	35	1811.0	5.0	;
	30	36	2714.0	5.0	;
	31	32	2753.0	5.0	;
	32	33	3198.0	5.0	;
	33	34	2274.0	5.0	;
	34	35	2991.0	5.0	;
	35	36	2443.0	5.0	;