<NUMBER OF ZONES> 2
<NUMBER OF NODES> 24
<FIRST THRU NODE> 1
<NUMBER OF LINKS> 76
<ORIGINAL HEADER> 
<END OF METADATA>


~	init_node	term_node	capacity	length	free_flow_time	b	power	speed	toll	link_type	prev_init_node	prev_term_node	;
	1	3	25900.20064	6	6	0.15	4	0	0	1	1	2	;
	1	4	23403.47319	4	4	0.15	4	0	0	1	1	3	;
	2	21	5059.91234	6	6	0.15	4	0	0	1	20	21	;
	2	22	5075.697193	5	5	0.15	4	0	0	1	20	22	;
	2	20	5002.607563	4	4	0.15	4	0	0	1	20	19	;
	2	19	23403.47319	4	4	0.15	4	0	0	1	20	18	;
	3	1	25900.20064	6	6	0.15	4	0	0	1	2	1	;
	3	7	4958.180928	5	5	0.15	4	0	0	1	2	6	;
	4	13	23403.47319	4	4	0.15	4	0	0	1	3	12	;
	4	1	23403.47319	4	4	0.15	4	0	0	1	3	1	;
	4	5	17110.52372	4	4	0.15	4	0	0	1	3	4	;
	5	4	17110.52372	4	4	0.15	4	0	0	1	4	3	;
	5	6	17782.7941	2	2	0.15	4	0	0	1	4	5	;
	5	12	4908.82673	6	6	0.15	4	0	0	1	4	11	;
	6	5	17782.7941	2	2	0.15	4	0	0	1	5	4	;
	6	7	4947.995469	4	4	0.15	4	0	0	1	5	6	;
	6	10	10000.0	5	5	0.15	4	0	0	1	5	9	;
	7	3	4958.180928	5	5	0.15	4	0	0	1	6	2	;
	7	6	4947.995469	4	4	0.15	4	0	0	1	6	5	;
	7	9	4898.587646	2	2	0.15	4	0	0	1	6	8	;
	8	9	7841.81131	3	3	0.15	4	0	0	1	7	8	;
	8	19	23403.47319	2	2	0.15	4	0	0	1	7	18	;
	9	10	5050.193156	10	10	0.15	4	0	0	1	8	9	;
	9	17	5045.822583	5	5	0.15	4	0	0	1	8	16	;
	9	7	4898.587646	2	2	0.15	4	0	0	1	8	6	;
	9	8	7841.81131	3	3	0.15	4	0	0	1	8	7	;
	10	6	10000.0	5	5	0.15	4	0	0	1	9	5	;
	10	9	5050.193156	10	10	0.15	4	0	0	1	9	8	;
	10	11	13915.78842	3	3	0.15	4	0	0	1	9	10	;
	11	17	4854.917717	4	4	0.15	4	0	0	1	10	16	;
	11	18	4993.510694	8	8	0.15	4	0	0	1	10	17	;
	11	12	10000.0	5	5	0.15	4	0	0	1	10	11	;
	11	10	13915.78842	3	3	0.15	4	0	0	1	10	9	;
	11	16	13512.00155	6	6	0.15	4	0	0	1	10	15	;
	12	5	4908.82673	6	6	0.15	4	0	0	1	11	4	;
	12	13	4908.82673	6	6	0.15	4	0	0	1	11	12	;
	12	15	4876.508287	4	4	0.15	4	0	0	1	11	14	;
	12	11	10000.0	5	5	0.15	4	0	0	1	11	10	;
	13	4	23403.47319	4	4	0.15	4	0	0	1	12	3	;
	13	12	4908.82673	6	6	0.15	4	0	0	1	12	11	;
	13	14	25900.20064	3	3	0.15	4	0	0	1	12	13	;
	14	13	25900.20064	3	3	0.15	4	0	0	1	13	12	;
	14	24	5091.256152	4	4	0.15	4	0	0	1	13	24	;
	15	16	5127.526119	5	5	0.15	4	0	0	1	14	15	;
	15	12	4876.508287	4	4	0.15	4	0	0	1	14	11	;
	15	23	4924.790605	4	4	0.15	4	0	0	1	14	23	;
	16	11	13512.00155	6	6	0.15	4	0	0	1	15	10	;
	16	22	9599.180565	3	3	0.15	4	0	0	1	15	22	;
	16	20	14564.75315	3	3	0.15	4	0	0	1	15	19	;
	16	15	5127.526119	5	5	0.15	4	0	0	1	15	14	;
	17	11	4854.917717	4	4	0.15	4	0	0	1	16	10	;
	17	18	5229.910063	2	2	0.15	4	0	0	1	16	17	;
	17	19	19679.89671	3	3	0.15	4	0	0	1	16	18	;
	17	9	5045.822583	5	5	0.15	4	0	0	1	16	8	;
	18	17	5229.910063	2	2	0.15	4	0	0	1	17	16	;
	18	20	4823.950831	2	2	0.15	4	0	0	1	17	19	;
	18	11	4993.510694	8	8	0.15	4	0	0	1	17	10	;
	19	8	23403.47319	2	2	0.15	4	0	0	1	18	7	;
	19	17	19679.89671	3	3	0.15	4	0	0	1	18	16	;
	19	2	23403.47319	4	4	0.15	4	0	0	1	18	20	;
	20	2	5002.607563	4	4	0.15	4	0	0	1	19	20	;
	20	16	14564.75315	3	3	0.15	4	0	0	1	19	15	;
	20	18	4823.950831	2	2	0.15	4	0	0	1	19	17	;
	21	2	5059.91234	6	6	0.15	4	0	0	1	21	20	;
	21	22	5229.910063	2	2	0.15	4	0	0	1	21	22	;
	21	24	4885.357564	3	3	0.15	4	0	0	1	21	24	;
	22	16	9599.180565	3	3	0.15	4	0	0	1	22	15	;
	22	2	5075.697193	5	5	0.15	4	0	0	1	22	20	;
	22	21	5229.910063	2	2	0.15	4	0	0	1	22	21	;
	22	23	5000.0	4	4	0.15	4	0	0	1	22	23	;
	23	15	4924.790605	4	4	0.15	4	0	0	1	23	14	;
	23	22	5000.0	4	4	0.15	4	0	0	1	23	22	;
	23	24	5078.508436	2	2	0.15	4	0	0	1	23	24	;
	24	21	4885.357564	3	3	0.15	4	0	0	1	24	21	;
	24	14	5091.256152	4	4	0.15	4	0	0	1	24	13	;
	24	23	5078.508436	2	2	0.15	4	0	0	1	24	23	;