<NUMBER OF ZONES> 50
<TOTAL OD FLOW> 10000.0
<END OF METADATA>



Origin  1
	26 :	30.0;	27 :	17.0;	28 :	26.0;	29 :	13.0;	30 :	18.0;
	31 :	23.0;	32 :	31.0;	33 :	4.0;	34 :	11.0;	35 :	17.0;
	36 :	10.0;	37 :	17.0;	38 :	21.0;	39 :	27.0;	40 :	10.0;
	41 :	21.0;	42 :	19.0;	43 :	28.0;	44 :	28.0;	45 :	29.0;
	46 :	27.0;	47 :	22.0;	48 :	2.0;	49 :	6.0;	50 :	7.0;


Origin  2
	26 :	25.0;	27 :	5.0;	28 :	5.0;	29 :	3.0;	30 :	11.0;
	31 :	3.0;	32 :	8.0;	33 :	11.0;	34 :	19.0;	35 :	1.0;
	36 :	0.0;	37 :	2.0;	38 :	27.0;	39 :	25.0;	40 :	14.0;
	41 :	23.0;	42 :	13.0;	43 :	17.0;	44 :	14.0;	45 :	30.0;
	46 :	16.0;	47 :	12.0;	48 :	22.0;	49 :	31.0;	50 :	16.0;


Origin  3
	26 :	20.0;	27 :	8.0;	28 :	23.0;	29 :	32.0;	30 :	3.0;
	31 :	30.0;	32 :	30.0;	33 :	11.0;	34 :	5.0;	35 :	32.0;
	36 :	12.0;	37 :	5.0;	38 :	12.0;	39 :	8.0;	40 :	2.0;
	41 :	7.0;	42 :	25.0;	43 :	15.0;	44 :	16.0;	45 :	21.0;
	46 :	10.0;	47 :	13.0;	48 :	30.0;	49 :	25.0;	50 :	6.0;


Origin  4
	26 :	24.0;	27 :	18.0;	28 :	7.0;	29 :	6.0;	30 :	27.0;
	31 :	11.0;	32 :	29.0;	33 :	24.0;	34 :	0.0;	35 :	29.0;
	36 :	31.0;	37 :	18.0;	38 :	17.0;	39 :	7.0;	40 :	13.0;
	41 :	21.0;	42 :	6.0;	43 :	32.0;	44 :	3.0;	45 :	24.0;
	46 :	22.0;	47 :	1.0;	48 :	18.0;	49 :	25.0;	50 :	16.0;


Origin  5
	26 :	17.0;	27 :	5.0;	28 :	27.0;	29 :	28.0;	30 :	11.0;
	31 :	13.0;	32 :	11.0;	33 :	30.0;	34 :	31.0;	35 :	22.0;
	36 :	25.0;	37 :	9.0;	38 :	30.0;	39 :	1.0;	40 :	29.0;
	41 :	19.0;	42 :	30.0;	43 :	21.0;	44 :	9.0;	45 :	2.0;
	46 :	10.0;	47 :	7.0;	48 :	24.0;	49 :	19.0;	50 :	22.0;


Origin  6
	26 :	12.0;	27 :	25.0;	28 :	10.0;	29 :	23.0;	30 :	14.0;
	31 :	10.0;	32 :	14.0;	33 :	29.0;	34 :	8.0;	35 :	33.0;
	36 :	24.0;	37 :	17.0;	38 :	7.0;	39 :	27.0;	40 :	10.0;
	41 :	32.0;	42 :	11.0;	43 :	24.0;	44 :	7.0;	45 :	23.0;
	46 :	31.0;	47 :	3.0;	48 :	31.0;	49 :	5.0;	50 :	2.0;


Origin  7
	26 :	29.0;	27 :	19.0;	28 :	1.0;	29 :	31.0;	30 :	1.0;
	31 :	0.0;	32 :	23.0;	33 :	13.0;	34 :	9.0;	35 :	14.0;
	36 :	21.0;	37 :	3.0;	38 :	30.0;	39 :	26.0;	40 :	18.0;
	41 :	4.0;	42 :	28.0;	43 :	12.0;	44 :	2.0;	45 :	23.0;
	46 :	12.0;	47 :	27.0;	48 :	13.0;	49 :	17.0;	50 :	4.0;


Origin  8
	26 :	0.0;	27 :	18.0;	28 :	22.0;	29 :	9.0;	30 :	32.0;
	31 :	10.0;	32 :	28.0;	33 :	16.0;	34 :	26.0;	35 :	7.0;
	36 :	0.0;	37 :	25.0;	38 :	30.0;	39 :	8.0;	40 :	6.0;
	41 :	24.0;	42 :	4.0;	43 :	29.0;	44 :	15.0;	45 :	13.0;
	46 :	19.0;	47 :	4.0;	48 :	15.0;	49 :	2.0;	50 :	8.0;


Origin  9
	26 :	25.0;	27 :	3.0;	28 :	4.0;	29 :	5.0;	30 :	31.0;
	31 :	22.0;	32 :	10.0;	33 :	12.0;	34 :	30.0;	35 :	28.0;
	36 :	32.0;	37 :	7.0;	38 :	11.0;	39 :	29.0;	40 :	25.0;
	41 :	1.0;	42 :	14.0;	43 :	28.0;	44 :	33.0;	45 :	30.0;
	46 :	25.0;	47 :	12.0;	48 :	18.0;	49 :	23.0;	50 :	12.0;


Origin  10
	26 :	10.0;	27 :	30.0;	28 :	3.0;	29 :	14.0;	30 :	33.0;
	31 :	2.0;	32 :	21.0;	33 :	17.0;	34 :	24.0;	35 :	2.0;
	36 :	29.0;	37 :	14.0;	38 :	25.0;	39 :	16.0;	40 :	24.0;
	41 :	24.0;	42 :	31.0;	43 :	2.0;	44 :	4.0;	45 :	5.0;
	46 :	2.0;	47 :	7.0;	48 :	23.0;	49 :	23.0;	50 :	24.0;


Origin  11
	26 :	19.0;	27 :	4.0;	28 :	30.0;	29 :	3.0;	30 :	1.0;
	31 :	0.0;	32 :	21.0;	33 :	2.0;	34 :	10.0;	35 :	20.0;
	36 :	5.0;	37 :	2.0;	38 :	19.0;	39 :	32.0;	40 :	30.0;
	41 :	16.0;	42 :	21.0;	43 :	4.0;	44 :	26.0;	45 :	29.0;
	46 :	2.0;	47 :	12.0;	48 :	13.0;	49 :	25.0;	50 :	8.0;


Origin  12
	26 :	13.0;	27 :	31.0;	28 :	6.0;	29 :	1.0;	30 :	17.0;
	31 :	9.0;	32 :	25.0;	33 :	11.0;	34 :	7.0;	35 :	6.0;
	36 :	9.0;	37 :	11.0;	38 :	3.0;	39 :	26.0;	40 :	16.0;
	41 :	9.0;	42 :	26.0;	43 :	6.0;	44 :	32.0;	45 :	6.0;
	46 :	8.0;	47 :	18.0;	48 :	31.0;	49 :	14.0;	50 :	5.0;


Origin  13
	26 :	13.0;	27 :	9.0;	28 :	26.0;	29 :	14.0;	30 :	21.0;
	31 :	22.0;	32 :	15.0;	33 :	1.0;	34 :	5.0;	35 :	16.0;
	36 :	14.0;	37 :	30.0;	38 :	0.0;	39 :	14.0;	40 :	20.0;
	41 :	17.0;	42 :	8.0;	43 :	4.0;	44 :	32.0;	45 :	12.0;
	46 :	3.0;	47 :	16.0;	48 :	25.0;	49 :	2.0;	50 :	7.0;


Origin  14
	26 :	17.0;	27 :	5.0;	28 :	5.0;	29 :	2.0;	30 :	19.0;
	31 :	17.0;	32 :	25.0;	33 :	8.0;	34 :	16.0;	35 :	26.0;
	36 :	30.0;	37 :	30.0;	38 :	25.0;	39 :	2.0;	40 :	21.0;
	41 :	24.0;	42 :	6.0;	43 :	4.0;	44 :	5.0;	45 :	0.0;
	46 :	30.0;	47 :	14.0;	48 :	11.0;	49 :	31.0;	50 :	22.0;


Origin  15
	26 :	11.0;	27 :	17.0;	28 :	19.0;	29 :	1.0;	30 :	20.0;
	31 :	27.0;	32 :	29.0;	33 :	29.0;	34 :	3.0;	35 :	2.0;
	36 :	5.0;	37 :	22.0;	38 :	4.0;	39 :	7.0;	40 :	7.0;
	41 :	14.0;	42 :	20.0;	43 :	24.0;	44 :	13.0;	45 :	18.0;
	46 :	26.0;	47 :	21.0;	48 :	13.0;	49 :	29.0;	50 :	21.0;


Origin  16
	26 :	3.0;	27 :	23.0;	28 :	4.0;	29 :	21.0;	30 :	17.0;
	31 :	15.0;	32 :	24.0;	33 :	6.0;	34 :	3.0;	35 :	24.0;
	36 :	22.0;	37 :	12.0;	38 :	13.0;	39 :	28.0;	40 :	19.0;
	41 :	21.0;	42 :	7.0;	43 :	23.0;	44 :	14.0;	45 :	20.0;
	46 :	4.0;	47 :	24.0;	48 :	6.0;	49 :	19.0;	50 :	11.0;


Origin  17
	26 :	10.0;	27 :	1.0;	28 :	16.0;	29 :	20.0;	30 :	14.0;
	31 :	3.0;	32 :	28.0;	33 :	5.0;	34 :	2.0;	35 :	28.0;
	36 :	7.0;	37 :	8.0;	38 :	28.0;	39 :	5.0;	40 :	12.0;
	41 :	26.0;	42 :	13.0;	43 :	25.0;	44 :	23.0;	45 :	33.0;
	46 :	3.0;	47 :	6.0;	48 :	8.0;	49 :	14.0;	50 :	10.0;


Origin  18
	26 :	8.0;	27 :	9.0;	28 :	12.0;	29 :	13.0;	30 :	27.0;
	31 :	21.0;	32 :	6.0;	33 :	24.0;	34 :	4.0;	35 :	10.0;
	36 :	16.0;	37 :	22.0;	38 :	15.0;	39 :	1.0;	40 :	13.0;
	41 :	32.0;	42 :	21.0;	43 :	7.0;	44 :	2.0;	45 :	13.0;
	46 :	22.0;	47 :	26.0;	48 :	16.0;	49 :	2.0;	50 :	22.0;


Origin  19
	26 :	9.0;	27 :	23.0;	28 :	10.0;	29 :	30.0;	30 :	29.0;
	31 :	12.0;	32 :	17.0;	33 :	12.0;	34 :	6.0;	35 :	17.0;
	36 :	7.0;	37 :	11.0;	38 :	31.0;	39 :	18.0;	40 :	33.0;
	41 :	17.0;	42 :	18.0;	43 :	10.0;	44 :	20.0;	45 :	17.0;
	46 :	29.0;	47 :	30.0;	48 :	13.0;	49 :	7.0;	50 :	21.0;


Origin  20
	26 :	2.0;	27 :	8.0;	28 :	21.0;	29 :	32.0;	30 :	18.0;
	31 :	18.0;	32 :	7.0;	33 :	7.0;	34 :	26.0;	35 :	21.0;
	36 :	31.0;	37 :	13.0;	38 :	26.0;	39 :	6.0;	40 :	18.0;
	41 :	4.0;	42 :	27.0;	43 :	27.0;	44 :	10.0;	45 :	9.0;
	46 :	24.0;	47 :	29.0;	48 :	18.0;	49 :	32.0;	50 :	28.0;


Origin  21
	26 :	9.0;	27 :	6.0;	28 :	29.0;	29 :	3.0;	30 :	30.0;
	31 :	1.0;	32 :	20.0;	33 :	8.0;	34 :	12.0;	35 :	15.0;
	36 :	19.0;	37 :	25.0;	38 :	11.0;	39 :	15.0;	40 :	23.0;
	41 :	12.0;	42 :	15.0;	43 :	18.0;	44 :	12.0;	45 :	11.0;
	46 :	18.0;	47 :	23.0;	48 :	19.0;	49 :	3.0;	50 :	11.0;


Origin  22
	26 :	26.0;	27 :	26.0;	28 :	9.0;	29 :	20.0;	30 :	23.0;
	31 :	17.0;	32 :	16.0;	33 :	7.0;	34 :	7.0;	35 :	18.0;
	36 :	14.0;	37 :	32.0;	38 :	33.0;	39 :	4.0;	40 :	9.0;
	41 :	11.0;	42 :	15.0;	43 :	16.0;	44 :	9.0;	45 :	19.0;
	46 :	5.0;	47 :	14.0;	48 :	20.0;	49 :	5.0;	50 :	13.0;


Origin  23
	26 :	3.0;	27 :	6.0;	28 :	9.0;	29 :	23.0;	30 :	28.0;
	31 :	20.0;	32 :	21.0;	33 :	16.0;	34 :	16.0;	35 :	17.0;
	36 :	17.0;	37 :	1.0;	38 :	26.0;	39 :	9.0;	40 :	9.0;
	41 :	1.0;	42 :	10.0;	43 :	7.0;	44 :	11.0;	45 :	31.0;
	46 :	11.0;	47 :	27.0;	48 :	22.0;	49 :	1.0;	50 :	31.0;


Origin  24
	26 :	22.0;	27 :	15.0;	28 :	8.0;	29 :	17.0;	30 :	25.0;
	31 :	9.0;	32 :	19.0;	33 :	33.0;	34 :	29.0;	35 :	29.0;
	36 :	17.0;	37 :	5.0;	38 :	11.0;	39 :	16.0;	40 :	8.0;
	41 :	18.0;	42 :	27.0;	43 :	13.0;	44 :	29.0;	45 :	23.0;
	46 :	5.0;	47 :	10.0;	48 :	18.0;	49 :	7.0;	50 :	24.0;


Origin  25
	26 :	20.0;	27 :	28.0;	28 :	27.0;	29 :	10.0;	30 :	8.0;
	31 :	6.0;	32 :	7.0;	33 :	10.0;	34 :	27.0;	35 :	25.0;
	36 :	27.0;	37 :	11.0;	38 :	28.0;	39 :	13.0;	40 :	15.0;
	41 :	29.0;	42 :	18.0;	43 :	30.0;	44 :	16.0;	45 :	26.0;
	46 :	9.0;	47 :	4.0;	48 :	19.0;	49 :	9.0;	50 :	5.0;
