<NUMBER OF ZONES> 50
<TOTAL OD FLOW> 10000.0
<END OF METADATA>



Origin  1
	26 :	21.0;	27 :	29.0;	28 :	23.0;	29 :	32.0;	30 :	26.0;
	31 :	22.0;	32 :	21.0;	33 :	25.0;	34 :	30.0;	35 :	22.0;
	36 :	30.0;	37 :	20.0;	38 :	27.0;	39 :	19.0;	40 :	13.0;
	41 :	26.0;	42 :	8.0;	43 :	14.0;	44 :	29.0;	45 :	19.0;
	46 :	32.0;	47 :	31.0;	48 :	15.0;	49 :	27.0;	50 :	0.0;


Origin  2
	26 :	6.0;	27 :	23.0;	28 :	5.0;	29 :	28.0;	30 :	8.0;
	31 :	27.0;	32 :	11.0;	33 :	7.0;	34 :	12.0;	35 :	21.0;
	36 :	16.0;	37 :	3.0;	38 :	16.0;	39 :	25.0;	40 :	17.0;
	41 :	12.0;	42 :	25.0;	43 :	1.0;	44 :	12.0;	45 :	0.0;
	46 :	14.0;	47 :	7.0;	48 :	21.0;	49 :	32.0;	50 :	8.0;


Origin  3
	26 :	24.0;	27 :	6.0;	28 :	31.0;	29 :	2.0;	30 :	10.0;
	31 :	30.0;	32 :	23.0;	33 :	20.0;	34 :	31.0;	35 :	24.0;
	36 :	12.0;	37 :	12.0;	38 :	9.0;	39 :	18.0;	40 :	7.0;
	41 :	11.0;	42 :	10.0;	43 :	24.0;	44 :	7.0;	45 :	31.0;
	46 :	19.0;	47 :	4.0;	48 :	30.0;	49 :	6.0;	50 :	20.0;


Origin  4
	26 :	17.0;	27 :	6.0;	28 :	8.0;	29 :	18.0;	30 :	2.0;
	31 :	2.0;	32 :	25.0;	33 :	8.0;	34 :	25.0;	35 :	16.0;
	36 :	3.0;	37 :	0.0;	38 :	22.0;	39 :	11.0;	40 :	24.0;
	41 :	2.0;	42 :	8.0;	43 :	13.0;	44 :	32.0;	45 :	6.0;
	46 :	18.0;	47 :	25.0;	48 :	28.0;	49 :	5.0;	50 :	22.0;


Origin  5
	26 :	19.0;	27 :	26.0;	28 :	30.0;	29 :	27.0;	30 :	30.0;
	31 :	0.0;	32 :	28.0;	33 :	24.0;	34 :	16.0;	35 :	18.0;
	36 :	30.0;	37 :	17.0;	38 :	10.0;	39 :	10.0;	40 :	10.0;
	41 :	13.0;	42 :	20.0;	43 :	22.0;	44 :	18.0;	45 :	3.0;
	46 :	8.0;	47 :	22.0;	48 :	13.0;	49 :	21.0;	50 :	7.0;


Origin  6
	26 :	11.0;	27 :	5.0;	28 :	21.0;	29 :	27.0;	30 :	20.0;
	31 :	20.0;	32 :	3.0;	33 :	5.0;	34 :	28.0;	35 :	19.0;
	36 :	16.0;	37 :	13.0;	38 :	12.0;	39 :	17.0;	40 :	10.0;
	41 :	20.0;	42 :	16.0;	43 :	28.0;	44 :	27.0;	45 :	18.0;
	46 :	30.0;	47 :	8.0;	48 :	26.0;	49 :	25.0;	50 :	15.0;


Origin  7
	26 :	5.0;	27 :	9.0;	28 :	29.0;	29 :	19.0;	30 :	22.0;
	31 :	24.0;	32 :	1.0;	33 :	9.0;	34 :	18.0;	35 :	8.0;
	36 :	12.0;	37 :	5.0;	38 :	6.0;	39 :	5.0;	40 :	17.0;
	41 :	15.0;	42 :	7.0;	43 :	30.0;	44 :	1.0;	45 :	18.0;
	46 :	20.0;	47 :	13.0;	48 :	10.0;	49 :	5.0;	50 :	16.0;


Origin  8
	26 :	31.0;	27 :	24.0;	28 :	11.0;	29 :	7.0;	30 :	20.0;
	31 :	4.0;	32 :	7.0;	33 :	3.0;	34 :	26.0;	35 :	0.0;
	36 :	23.0;	37 :	5.0;	38 :	8.0;	39 :	1.0;	40 :	24.0;
	41 :	7.0;	42 :	15.0;	43 :	5.0;	44 :	11.0;	45 :	29.0;
	46 :	3.0;	47 :	22.0;	48 :	2.0;	49 :	22.0;	50 :	18.0;


Origin  9
	26 :	27.0;	27 :	18.0;	28 :	29.0;	29 :	24.0;	30 :	7.0;
	31 :	16.0;	32 :	31.0;	33 :	20.0;	34 :	8.0;	35 :	22.0;
	36 :	13.0;	37 :	14.0;	38 :	15.0;	39 :	17.0;	40 :	15.0;
	41 :	23.0;	42 :	21.0;	43 :	4.0;	44 :	25.0;	45 :	22.0;
	46 :	3.0;	47 :	5.0;	48 :	28.0;	49 :	20.0;	50 :	30.0;


Origin  10
	26 :	9.0;	27 :	15.0;	28 :	10.0;	29 :	13.0;	30 :	23.0;
	31 :	10.0;	32 :	4.0;	33 :	9.0;	34 :	13.0;	35 :	8.0;
	36 :	5.0;	37 :	27.0;	38 :	0.0;	39 :	13.0;	40 :	12.0;
	41 :	11.0;	42 :	17.0;	43 :	1.0;	44 :	30.0;	45 :	24.0;
	46 :	23.0;	47 :	12.0;	48 :	8.0;	49 :	13.0;	50 :	17.0;


Origin  11
	26 :	22.0;	27 :	6.0;	28 :	29.0;	29 :	3.0;	30 :	31.0;
	31 :	20.0;	32 :	7.0;	33 :	10.0;	34 :	22.0;	35 :	28.0;
	36 :	13.0;	37 :	23.0;	38 :	2.0;	39 :	3.0;	40 :	9.0;
	41 :	22.0;	42 :	22.0;	43 :	10.0;	44 :	30.0;	45 :	17.0;
	46 :	15.0;	47 :	30.0;	48 :	7.0;	49 :	19.0;	50 :	1.0;


Origin  12
	26 :	15.0;	27 :	19.0;	28 :	9.0;	29 :	24.0;	30 :	7.0;
	31 :	20.0;	32 :	15.0;	33 :	1.0;	34 :	9.0;	35 :	17.0;
	36 :	21.0;	37 :	7.0;	38 :	11.0;	39 :	26.0;	40 :	2.0;
	41 :	27.0;	42 :	19.0;	43 :	12.0;	44 :	21.0;	45 :	5.0;
	46 :	13.0;	47 :	25.0;	48 :	13.0;	49 :	5.0;	50 :	24.0;


Origin  13
	26 :	13.0;	27 :	3.0;	28 :	23.0;	29 :	32.0;	30 :	5.0;
	31 :	24.0;	32 :	8.0;	33 :	3.0;	34 :	20.0;	35 :	15.0;
	36 :	22.0;	37 :	5.0;	38 :	23.0;	39 :	27.0;	40 :	12.0;
	41 :	19.0;	42 :	28.0;	43 :	28.0;	44 :	0.0;	45 :	24.0;
	46 :	10.0;	47 :	1.0;	48 :	20.0;	49 :	25.0;	50 :	28.0;


Origin  14
	26 :	1.0;	27 :	11.0;	28 :	29.0;	29 :	29.0;	30 :	5.0;
	31 :	1.0;	32 :	12.0;	33 :	19.0;	34 :	11.0;	35 :	16.0;
	36 :	5.0;	37 :	19.0;	38 :	3.0;	39 :	28.0;	40 :	21.0;
	41 :	32.0;	42 :	18.0;	43 :	10.0;	44 :	27.0;	45 :	27.0;
	46 :	21.0;	47 :	15.0;	48 :	29.0;	49 :	2.0;	50 :	25.0;


Origin  15
	26 :	25.0;	27 :	18.0;	28 :	23.0;	29 :	14.0;	30 :	31.0;
	31 :	26.0;	32 :	11.0;	33 :	16.0;	34 :	16.0;	35 :	4.0;
	36 :	3.0;	37 :	8.0;	38 :	19.0;	39 :	24.0;	40 :	22.0;
	41 :	22.0;	42 :	3.0;	43 :	12.0;	44 :	5.0;	45 :	19.0;
	46 :	25.0;	47 :	2.0;	48 :	13.0;	49 :	18.0;	50 :	25.0;


Origin  16
	26 :	29.0;	27 :	14.0;	28 :	17.0;	29 :	15.0;	30 :	5.0;
	31 :	15.0;	32 :	11.0;	33 :	15.0;	34 :	13.0;	35 :	10.0;
	36 :	30.0;	37 :	12.0;	38 :	4.0;	39 :	19.0;	40 :	23.0;
	41 :	19.0;	42 :	14.0;	43 :	5.0;	44 :	29.0;	45 :	32.0;
	46 :	8.0;	47 :	32.0;	48 :	25.0;	49 :	21.0;	50 :	28.0;


Origin  17
	26 :	14.0;	27 :	23.0;	28 :	16.0;	29 :	3.0;	30 :	19.0;
	31 :	27.0;	32 :	31.0;	33 :	25.0;	34 :	22.0;	35 :	16.0;
	36 :	9.0;	37 :	27.0;	38 :	18.0;	39 :	5.0;	40 :	26.0;
	41 :	18.0;	42 :	22.0;	43 :	32.0;	44 :	15.0;	45 :	25.0;
	46 :	18.0;	47 :	12.0;	48 :	3.0;	49 :	16.0;	50 :	22.0;


Origin  18
	26 :	2.0;	27 :	2.0;	28 :	1.0;	29 :	10.0;	30 :	30.0;
	31 :	4.0;	32 :	27.0;	33 :	29.0;	34 :	16.0;	35 :	30.0;
	36 :	17.0;	37 :	18.0;	38 :	11.0;	39 :	14.0;	40 :	28.0;
	41 :	10.0;	42 :	15.0;	43 :	3.0;	44 :	24.0;	45 :	32.0;
	46 :	13.0;	47 :	24.0;	48 :	25.0;	49 :	5.0;	50 :	24.0;


Origin  19
	26 :	21.0;	27 :	29.0;	28 :	31.0;	29 :	12.0;	30 :	14.0;
	31 :	3.0;	32 :	18.0;	33 :	16.0;	34 :	30.0;	35 :	18.0;
	36 :	9.0;	37 :	14.0;	38 :	23.0;	39 :	3.0;	40 :	17.0;
	41 :	23.0;	42 :	16.0;	43 :	23.0;	44 :	31.0;	45 :	6.0;
	46 :	30.0;	47 :	23.0;	48 :	6.0;	49 :	14.0;	50 :	24.0;


Origin  20
	26 :	2.0;	27 :	19.0;	28 :	5.0;	29 :	16.0;	30 :	8.0;
	31 :	5.0;	32 :	8.0;	33 :	28.0;	34 :	19.0;	35 :	11.0;
	36 :	32.0;	37 :	23.0;	38 :	25.0;	39 :	12.0;	40 :	9.0;
	41 :	12.0;	42 :	7.0;	43 :	19.0;	44 :	10.0;	45 :	6.0;
	46 :	21.0;	47 :	23.0;	48 :	30.0;	49 :	6.0;	50 :	10.0;


Origin  21
	26 :	4.0;	27 :	8.0;	28 :	27.0;	29 :	15.0;	30 :	17.0;
	31 :	13.0;	32 :	26.0;	33 :	4.0;	34 :	26.0;	35 :	21.0;
	36 :	11.0;	37 :	8.0;	38 :	14.0;	39 :	24.0;	40 :	5.0;
	41 :	13.0;	42 :	2.0;	43 :	13.0;	44 :	9.0;	45 :	9.0;
	46 :	0.0;	47 :	22.0;	48 :	20.0;	49 :	1.0;	50 :	30.0;


Origin  22
	26 :	8.0;	27 :	31.0;	28 :	5.0;	29 :	14.0;	30 :	11.0;
	31 :	18.0;	32 :	11.0;	33 :	28.0;	34 :	16.0;	35 :	29.0;
	36 :	26.0;	37 :	27.0;	38 :	5.0;	39 :	1.0;	40 :	15.0;
	41 :	26.0;	42 :	23.0;	43 :	3.0;	44 :	18.0;	45 :	14.0;
	46 :	22.0;	47 :	6.0;	48 :	27.0;	49 :	8.0;	50 :	11.0;


Origin  23
	26 :	9.0;	27 :	2.0;	28 :	10.0;	29 :	17.0;	30 :	8.0;
	31 :	10.0;	32 :	21.0;	33 :	19.0;	34 :	1.0;	35 :	28.0;
	36 :	32.0;	37 :	24.0;	38 :	15.0;	39 :	9.0;	40 :	7.0;
	41 :	8.0;	42 :	10.0;	43 :	30.0;	44 :	10.0;	45 :	18.0;
	46 :	19.0;	47 :	2.0;	48 :	19.0;	49 :	23.0;	50 :	1.0;


Origin  24
	26 :	26.0;	27 :	18.0;	28 :	6.0;	29 :	9.0;	30 :	2.0;
	31 :	16.0;	32 :	19.0;	33 :	32.0;	34 :	20.0;	35 :	9.0;
	36 :	5.0;	37 :	25.0;	38 :	12.0;	39 :	26.0;	40 :	21.0;
	41 :	4.0;	42 :	14.0;	43 :	25.0;	44 :	18.0;	45 :	21.0;
	46 :	12.0;	47 :	14.0;	48 :	8.0;	49 :	15.0;	50 :	0.0;


Origin  25
	26 :	11.0;	27 :	9.0;	28 :	29.0;	29 :	25.0;	30 :	32.0;
	31 :	30.0;	32 :	12.0;	33 :	1.0;	34 :	11.0;	35 :	14.0;
	36 :	1.0;	37 :	5.0;	38 :	2.0;	39 :	4.0;	40 :	22.0;
	41 :	26.0;	42 :	27.0;	43 :	11.0;	44 :	5.0;	45 :	7.0;
	46 :	11.0;	47 :	12.0;	48 :	24.0;	49 :	29.0;	50 :	14.0;
