<NUMBER OF ZONES> 50
<TOTAL OD FLOW> 10000.0
<END OF METADATA>



Origin  1
	26 :	0.0;	27 :	15.0;	28 :	5.0;	29 :	14.0;	30 :	7.0;
	31 :	12.0;	32 :	31.0;	33 :	24.0;	34 :	20.0;	35 :	30.0;
	36 :	28.0;	37 :	17.0;	38 :	7.0;	39 :	2.0;	40 :	22.0;
	41 :	26.0;	42 :	28.0;	43 :	2.0;	44 :	24.0;	45 :	8.0;
	46 :	27.0;	47 :	12.0;	48 :	17.0;	49 :	27.0;	50 :	20.0;


Origin  2
	26 :	28.0;	27 :	15.0;	28 :	0.0;	29 :	13.0;	30 :	27.0;
	31 :	17.0;	32 :	28.0;	33 :	9.0;	34 :	20.0;	35 :	31.0;
	36 :	5.0;	37 :	13.0;	38 :	1.0;	39 :	18.0;	40 :	4.0;
	41 :	19.0;	42 :	9.0;	43 :	19.0;	44 :	26.0;	45 :	12.0;
	46 :	11.0;	47 :	9.0;	48 :	23.0;	49 :	32.0;	50 :	8.0;


Origin  3
	26 :	28.0;	27 :	26.0;	28 :	16.0;	29 :	22.0;	30 :	23.0;
	31 :	4.0;	32 :	30.0;	33 :	8.0;	34 :	17.0;	35 :	9.0;
	36 :	12.0;	37 :	20.0;	38 :	22.0;	39 :	8.0;	40 :	13.0;
	41 :	20.0;	42 :	30.0;	43 :	25.0;	44 :	30.0;	45 :	30.0;
	46 :	0.0;	47 :	2.0;	48 :	30.0;	49 :	21.0;	50 :	3.0;


Origin  4
	26 :	25.0;	27 :	22.0;	28 :	26.0;	29 :	20.0;	30 :	3.0;
	31 :	7.0;	32 :	16.0;	33 :	2.0;	34 :	4.0;	35 :	7.0;
	36 :	4.0;	37 :	1.0;	38 :	17.0;	39 :	17.0;	40 :	3.0;
	41 :	9.0;	42 :	19.0;	43 :	31.0;	44 :	7.0;	45 :	26.0;
	46 :	14.0;	47 :	13.0;	48 :	25.0;	49 :	28.0;	50 :	30.0;


Origin  5
	26 :	20.0;	27 :	2.0;	28 :	28.0;	29 :	10.0;	30 :	10.0;
	31 :	14.0;	32 :	10.0;	33 :	22.0;	34 :	9.0;	35 :	21.0;
	36 :	24.0;	37 :	31.0;	38 :	10.0;	39 :	28.0;	40 :	10.0;
	41 :	18.0;	42 :	4.0;	43 :	8.0;	44 :	4.0;	45 :	4.0;
	46 :	9.0;	47 :	14.0;	48 :	28.0;	49 :	0.0;	50 :	15.0;


Origin  6
	26 :	12.0;	27 :	27.0;	28 :	32.0;	29 :	22.0;	30 :	6.0;
	31 :	29.0;	32 :	23.0;	33 :	30.0;	34 :	15.0;	35 :	2.0;
	36 :	17.0;	37 :	8.0;	38 :	5.0;	39 :	18.0;	40 :	25.0;
	41 :	1.0;	42 :	29.0;	43 :	2.0;	44 :	3.0;	45 :	9.0;
	46 :	26.0;	47 :	20.0;	48 :	17.0;	49 :	27.0;	50 :	6.0;


Origin  7
	26 :	21.0;	27 :	25.0;	28 :	16.0;	29 :	28.0;	30 :	1.0;
	31 :	22.0;	32 :	11.0;	33 :	9.0;	34 :	31.0;	35 :	3.0;
	36 :	5.0;	37 :	13.0;	38 :	15.0;	39 :	2.0;	40 :	3.0;
	41 :	10.0;	42 :	13.0;	43 :	14.0;	44 :	26.0;	45 :	9.0;
	46 :	18.0;	47 :	0.0;	48 :	15.0;	49 :	26.0;	50 :	8.0;


Origin  8
	26 :	8.0;	27 :	8.0;	28 :	26.0;	29 :	1.0;	30 :	18.0;
	31 :	13.0;	32 :	8.0;	33 :	25.0;	34 :	12.0;	35 :	22.0;
	36 :	28.0;	37 :	9.0;	38 :	23.0;	39 :	24.0;	40 :	27.0;
	41 :	31.0;	42 :	0.0;	43 :	31.0;	44 :	32.0;	45 :	15.0;
	46 :	25.0;	47 :	2.0;	48 :	16.0;	49 :	1.0;	50 :	7.0;


Origin  9
	26 :	3.0;	27 :	29.0;	28 :	18.0;	29 :	22.0;	30 :	23.0;
	31 :	6.0;	32 :	4.0;	33 :	28.0;	34 :	17.0;	35 :	16.0;
	36 :	1.0;	37 :	7.0;	38 :	10.0;	39 :	8.0;	40 :	21.0;
	41 :	1.0;	42 :	20.0;	43 :	24.0;	44 :	5.0;	45 :	5.0;
	46 :	31.0;	47 :	26.0;	48 :	22.0;	49 :	6.0;	50 :	3.0;


Origin  10
	26 :	25.0;	27 :	8.0;	28 :	6.0;	29 :	1.0;	30 :	7.0;
	31 :	29.0;	32 :	27.0;	33 :	6.0;	34 :	10.0;	35 :	10.0;
	36 :	28.0;	37 :	24.0;	38 :	30.0;	39 :	2.0;	40 :	19.0;
	41 :	19.0;	42 :	6.0;	43 :	26.0;	44 :	20.0;	45 :	20.0;
	46 :	30.0;	47 :	31.0;	48 :	9.0;	49 :	17.0;	50 :	18.0;


Origin  11
	26 :	14.0;	27 :	27.0;	28 :	23.0;	29 :	31.0;	30 :	19.0;
	31 :	17.0;	32 :	13.0;	33 :	8.0;	34 :	29.0;	35 :	5.0;
	36 :	10.0;	37 :	21.0;	38 :	15.0;	39 :	3.0;	40 :	13.0;
	41 :	18.0;	42 :	20.0;	43 :	14.0;	44 :	4.0;	45 :	26.0;
	46 :	22.0;	47 :	8.0;	48 :	8.0;	49 :	16.0;	50 :	14.0;


Origin  12
	26 :	29.0;	27 :	29.0;	28 :	23.0;	29 :	21.0;	30 :	11.0;
	31 :	3.0;	32 :	29.0;	33 :	2.0;	34 :	29.0;	35 :	6.0;
	36 :	5.0;	37 :	22.0;	38 :	8.0;	39 :	10.0;	40 :	17.0;
	41 :	27.0;	42 :	21.0;	43 :	8.0;	44 :	21.0;	45 :	23.0;
	46 :	11.0;	47 :	18.0;	48 :	6.0;	49 :	25.0;	50 :	2.0;


Origin  13
	26 :	15.0;	27 :	25.0;	28 :	3.0;	29 :	25.0;	30 :	6.0;
	31 :	26.0;	32 :	13.0;	33 :	8.0;	34 :	7.0;	35 :	20.0;
	36 :	14.0;	37 :	30.0;	38 :	20.0;	39 :	1.0;	40 :	19.0;
	41 :	15.0;	42 :	4.0;	43 :	8.0;	44 :	11.0;	45 :	22.0;
	46 :	22.0;	47 :	10.0;	48 :	5.0;	49 :	15.0;	50 :	4.0;


Origin  14
	26 :	10.0;	27 :	15.0;	28 :	29.0;	29 :	7.0;	30 :	9.0;
	31 :	1.0;	32 :	12.0;	33 :	15.0;	34 :	18.0;	35 :	22.0;
	36 :	22.0;	37 :	23.0;	38 :	7.0;	39 :	15.0;	40 :	24.0;
	41 :	23.0;	42 :	15.0;	43 :	25.0;	44 :	6.0;	45 :	6.0;
	46 :	25.0;	47 :	32.0;	48 :	10.0;	49 :	31.0;	50 :	18.0;


Origin  15
	26 :	2.0;	27 :	24.0;	28 :	25.0;	29 :	27.0;	30 :	15.0;
	31 :	23.0;	32 :	31.0;	33 :	21.0;	34 :	26.0;	35 :	2.0;
	36 :	6.0;	37 :	28.0;	38 :	14.0;	39 :	23.0;	40 :	16.0;
	41 :	26.0;	42 :	0.0;	43 :	9.0;	44 :	29.0;	45 :	10.0;
	46 :	28.0;	47 :	5.0;	48 :	17.0;	49 :	28.0;	50 :	6.0;


Origin  16
	26 :	19.0;	27 :	9.0;	28 :	3.0;	29 :	30.0;	30 :	27.0;
	31 :	7.0;	32 :	23.0;	33 :	1.0;	34 :	21.0;	35 :	15.0;
	36 :	17.0;	37 :	12.0;	38 :	12.0;	39 :	28.0;	40 :	22.0;
	41 :	17.0;	42 :	16.0;	43 :	20.0;	44 :	20.0;	45 :	9.0;
	46 :	29.0;	47 :	8.0;	48 :	8.0;	49 :	3.0;	50 :	17.0;


Origin  17
	26 :	29.0;	27 :	17.0;	28 :	28.0;	29 :	16.0;	30 :	27.0;
	31 :	2.0;	32 :	26.0;	33 :	28.0;	34 :	31.0;	35 :	8.0;
	36 :	19.0;	37 :	13.0;	38 :	23.0;	39 :	16.0;	40 :	14.0;
	41 :	8.0;	42 :	27.0;	43 :	1.0;	44 :	28.0;	45 :	26.0;
	46 :	13.0;	47 :	29.0;	48 :	16.0;	49 :	4.0;	50 :	1.0;


Origin  18
	26 :	17.0;	27 :	20.0;	28 :	24.0;	29 :	11.0;	30 :	19.0;
	31 :	2.0;	32 :	27.0;	33 :	3.0;	34 :	11.0;	35 :	2.0;
	36 :	20.0;	37 :	29.0;	38 :	9.0;	39 :	26.0;	40 :	28.0;
	41 :	14.0;	42 :	19.0;	43 :	11.0;	44 :	14.0;	45 :	25.0;
	46 :	17.0;	47 :	16.0;	48 :	8.0;	49 :	2.0;	50 :	25.0;


Origin  19
	26 :	1.0;	27 :	21.0;	28 :	3.0;	29 :	5.0;	30 :	24.0;
	31 :	10.0;	32 :	7.0;	33 :	24.0;	34 :	15.0;	35 :	8.0;
	36 :	32.0;	37 :	22.0;	38 :	26.0;	39 :	26.0;	40 :	25.0;
	41 :	30.0;	42 :	24.0;	43 :	14.0;	44 :	18.0;	45 :	1.0;
	46 :	22.0;	47 :	6.0;	48 :	28.0;	49 :	4.0;	50 :	9.0;


Origin  20
	26 :	10.0;	27 :	29.0;	28 :	26.0;	29 :	21.0;	30 :	2.0;
	31 :	6.0;	32 :	31.0;	33 :	22.0;	34 :	13.0;	35 :	19.0;
	36 :	2.0;	37 :	18.0;	38 :	24.0;	39 :	14.0;	40 :	2.0;
	41 :	2.0;	42 :	11.0;	43 :	10.0;	44 :	29.0;	45 :	30.0;
	46 :	3.0;	47 :	9.0;	48 :	11.0;	49 :	10.0;	50 :	0.0;


Origin  21
	26 :	15.0;	27 :	9.0;	28 :	13.0;	29 :	10.0;	30 :	7.0;
	31 :	18.0;	32 :	2.0;	33 :	13.0;	34 :	10.0;	35 :	12.0;
	36 :	30.0;	37 :	26.0;	38 :	19.0;	39 :	19.0;	40 :	14.0;
	41 :	0.0;	42 :	10.0;	43 :	3.0;	44 :	24.0;	45 :	12.0;
	46 :	29.0;	47 :	16.0;	48 :	25.0;	49 :	29.0;	50 :	30.0;


Origin  22
	26 :	9.0;	27 :	5.0;	28 :	6.0;	29 :	16.0;	30 :	2.0;
	31 :	12.0;	32 :	3.0;	33 :	19.0;	34 :	17.0;	35 :	27.0;
	36 :	10.0;	37 :	27.0;	38 :	21.0;	39 :	21.0;	40 :	21.0;
	41 :	28.0;	42 :	3.0;	43 :	6.0;	44 :	21.0;	45 :	17.0;
	46 :	18.0;	47 :	18.0;	48 :	23.0;	49 :	25.0;	50 :	32.0;


Origin  23
	26 :	11.0;	27 :	17.0;	28 :	18.0;	29 :	6.0;	30 :	18.0;
	31 :	6.0;	32 :	26.0;	33 :	22.0;	34 :	5.0;	35 :	4.0;
	36 :	2.0;	37 :	17.0;	38 :	29.0;	39 :	6.0;	40 :	6.0;
	41 :	31.0;	42 :	32.0;	43 :	14.0;	44 :	4.0;	45 :	9.0;
	46 :	18.0;	47 :	1.0;	48 :	14.0;	49 :	16.0;	50 :	16.0;


Origin  24
	26 :	25.0;	27 :	27.0;	28 :	2.0;	29 :	26.0;	30 :	13.0;
	31 :	28.0;	32 :	15.0;	33 :	31.0;	34 :	19.0;	35 :	30.0;
	36 :	13.0;	37 :	12.0;	38 :	3.0;	39 :	11.0;	40 :	6.0;
	41 :	18.0;	42 :	12.0;	43 :	27.0;	44 :	22.0;	45 :	24.0;
	46 :	4.0;	47 :	17.0;	48 :	20.0;	49 :	11.0;	50 :	28.0;


Origin  25
	26 :	20.0;	27 :	11.0;	28 :	23.0;	29 :	15.0;	30 :	21.0;
	31 :	1.0;	32 :	23.0;	33 :	28.0;	34 :	9.0;	35 :	17.0;
	36 :	9.0;	37 :	31.0;	38 :	12.0;	39 :	29.0;	40 :	31.0;
	41 :	15.0;	42 :	22.0;	43 :	12.0;	44 :	30.0;	45 :	31.0;
	46 :	27.0;	47 :	5.0;	48 :	14.0;	49 :	2.0;	50 :	3.0;
