<NUMBER OF ZONES> 8
<TOTAL OD FLOW> 15.0
<END OF METADATA>



Origin  1
	5 :	0.322812811637065;	6 :	1.2782767969987794;	7 :	1.522137887857282;	8 :	1.3030341684362312;

Origin  2
	5 :	0.24787745889283075;	6 :	0.28388461371438056;	7 :	1.6279934695050933;	8 :	1.5994193827833165;

Origin  3
	5 :	0.7288465512256438;	6 :	0.5762343108194335;	7 :	1.1660661061678492;	8 :	0.5774037074412689;

Origin  4
	5 :	1.769471781168844;	6 :	1.7797771891845042;	7 :	0.16862254924610387;	8 :	0.048141214921374825;