<NUMBER OF ZONES> 8
<TOTAL OD FLOW> 15.0
<END OF METADATA>



Origin  1
	5 :	0.7330509668762147;	6 :	1.566058393986948;	7 :	1.150444408579116;	8 :	0.3390216842962938;

Origin  2
	5 :	0.08738171826975771;	6 :	0.9084991937506942;	7 :	0.30471086669433584;	8 :	0.7539646724195677;

Origin  3
	5 :	1.89411229257501;	6 :	0.5590945996324893;	7 :	0.5077929298879901;	8 :	1.9105017099058466;

Origin  4
	5 :	1.4009446032798354;	6 :	0.5828435540099749;	7 :	0.3993343414667607;	8 :	1.9022440643691636;