<NUMBER OF ZONES> 8
<TOTAL OD FLOW> 1000.0
<END OF METADATA>



Origin  1
	5 :	94.3443695657043;	6 :	118.45050011687567;	7 :	49.1031281115652;	8 :	13.162459306550941;

Origin  2
	5 :	11.601522031578089;	6 :	36.46148611184594;	7 :	125.41200546572396;	8 :	80.02239676434962;

Origin  3
	5 :	46.262552589490205;	6 :	33.11218479993699;	7 :	135.01410373629372;	8 :	17.405014831101266;

Origin  4
	5 :	45.10394646397372;	6 :	44.696765156981044;	7 :	95.74087533574814;	8 :	54.106689612281215;