<NUMBER OF ZONES> 8
<TOTAL OD FLOW> 1000.0
<END OF METADATA>



Origin  1
	5 :	41.75030354262762;	6 :	58.90800870324774;	7 :	85.11780462483675;	8 :	24.348513347084594;

Origin  2
	5 :	96.8137723544894;	6 :	99.9282367466469;	7 :	49.47642794909961;	8 :	85.64474558979572;

Origin  3
	5 :	75.617835326247;	6 :	62.246506063846034;	7 :	40.27593323185415;	8 :	91.62108295070841;

Origin  4
	5 :	77.2510698634307;	6 :	53.60381897177357;	7 :	44.00438901007844;	8 :	13.391551724233528;