<NUMBER OF ZONES> 8
<TOTAL OD FLOW> 15.0
<END OF METADATA>



Origin  1
	5 :	1.091980759553561;	6 :	1.6166788661891247;	7 :	1.6742954811761388;	8 :	1.365417457561353;

Origin  2
	5 :	0.025737225589552225;	6 :	0.015747401296261083;	7 :	0.18387622184488367;	8 :	1.096472966273209;

Origin  3
	5 :	1.5310449749570028;	6 :	1.7716803327989656;	7 :	0.16634494087025078;	8 :	0.24797421962927868;

Origin  4
	5 :	1.2892438097979497;	6 :	0.9739680357587711;	7 :	1.0169451145743853;	8 :	0.9325921921293105;