<NUMBER OF ZONES> 8
<TOTAL OD FLOW> 15.0
<END OF METADATA>



Origin  1
	5 :	13.410748638143149;	6 :	5.11279636439716;	7 :	13.784276785774924;	8 :	5.277700066839737;

Origin  2
	5 :	0.5764597558818985;	6 :	3.0771946502645657;	7 :	6.888958339622127;	8 :	1.5378904222219192;

Origin  3
	5 :	13.903629861217672;	6 :	2.6525462959489587;	7 :	7.480038157877616;	8 :	0.09639640234560931;

Origin  4
	5 :	14.178197226852618;	6 :	13.374380840003813;	7 :	2.3357805402999867;	8 :	8.160612756557068;