<NUMBER OF ZONES> 8
<TOTAL OD FLOW> 15.0
<END OF METADATA>



Origin  1
	5 :	1.3115689582420527;	6 :	1.419136299676163;	7 :	1.336552075313993;	8 :	1.1260636071048142;

Origin  2
	5 :	0.8245724578094848;	6 :	0.38604072767936276;	7 :	0.9055718397969383;	8 :	1.4537470644388064;

Origin  3
	5 :	0.18354998476811948;	6 :	1.2193794719843183;	7 :	0.7690653011382431;	8 :	0.46072752915604476;

Origin  4
	5 :	1.0713948356601972;	6 :	1.0931829895078269;	7 :	1.293776364652797;	8 :	0.14567049307083663;