<NUMBER OF ZONES> 8
<TOTAL OD FLOW> 15.0
<END OF METADATA>



Origin  1
	5 :	14.628041335272782;	6 :	13.045780583281417;	7 :	4.865645147302464;	8 :	2.3268667540434635;

Origin  2
	5 :	1.905183685547932;	6 :	10.06776937713515;	7 :	7.7467391810246085;	8 :	13.974061901047435;

Origin  3
	5 :	10.67342534643792;	6 :	3.39869849243167;	7 :	14.678487337144258;	8 :	10.41215433305155;

Origin  4
	5 :	9.05660297134356;	6 :	3.6849735010314113;	7 :	11.919191432184029;	8 :	2.6748540759463597;