<NUMBER OF ZONES> 32
<TOTAL OD FLOW> 10000.0
<END OF METADATA>



Origin  1
	17 :	1.0;	18 :	13.0;	19 :	32.0;	20 :	44.0;	21 :	4.0;
	22 :	69.0;	23 :	58.0;	24 :	78.0;	25 :	17.0;	26 :	44.0;
	27 :	68.0;	28 :	46.0;	29 :	26.0;	30 :	53.0;	31 :	20.0;
	32 :	24.0;

Origin  2
	17 :	47.0;	18 :	61.0;	19 :	21.0;	20 :	8.0;	21 :	25.0;
	22 :	67.0;	23 :	65.0;	24 :	70.0;	25 :	38.0;	26 :	38.0;
	27 :	48.0;	28 :	28.0;	29 :	62.0;	30 :	34.0;	31 :	50.0;
	32 :	27.0;

Origin  3
	17 :	29.0;	18 :	15.0;	19 :	13.0;	20 :	24.0;	21 :	31.0;
	22 :	44.0;	23 :	63.0;	24 :	8.0;	25 :	30.0;	26 :	79.0;
	27 :	19.0;	28 :	23.0;	29 :	12.0;	30 :	25.0;	31 :	0.0;
	32 :	28.0;

Origin  4
	17 :	77.0;	18 :	15.0;	19 :	12.0;	20 :	65.0;	21 :	44.0;
	22 :	72.0;	23 :	28.0;	24 :	25.0;	25 :	18.0;	26 :	41.0;
	27 :	46.0;	28 :	79.0;	29 :	69.0;	30 :	6.0;	31 :	8.0;
	32 :	20.0;

Origin  5
	17 :	27.0;	18 :	51.0;	19 :	72.0;	20 :	63.0;	21 :	77.0;
	22 :	33.0;	23 :	44.0;	24 :	35.0;	25 :	29.0;	26 :	65.0;
	27 :	66.0;	28 :	61.0;	29 :	62.0;	30 :	25.0;	31 :	47.0;
	32 :	73.0;

Origin  6
	17 :	54.0;	18 :	7.0;	19 :	63.0;	20 :	56.0;	21 :	66.0;
	22 :	9.0;	23 :	75.0;	24 :	74.0;	25 :	14.0;	26 :	45.0;
	27 :	78.0;	28 :	10.0;	29 :	31.0;	30 :	5.0;	31 :	3.0;
	32 :	16.0;

Origin  7
	17 :	3.0;	18 :	29.0;	19 :	61.0;	20 :	76.0;	21 :	12.0;
	22 :	39.0;	23 :	82.0;	24 :	24.0;	25 :	21.0;	26 :	74.0;
	27 :	31.0;	28 :	3.0;	29 :	33.0;	30 :	22.0;	31 :	64.0;
	32 :	62.0;

Origin  8
	17 :	38.0;	18 :	22.0;	19 :	16.0;	20 :	67.0;	21 :	49.0;
	22 :	4.0;	23 :	6.0;	24 :	57.0;	25 :	11.0;	26 :	42.0;
	27 :	9.0;	28 :	60.0;	29 :	37.0;	30 :	19.0;	31 :	2.0;
	32 :	59.0;

Origin  9
	17 :	61.0;	18 :	40.0;	19 :	73.0;	20 :	52.0;	21 :	41.0;
	22 :	27.0;	23 :	3.0;	24 :	6.0;	25 :	17.0;	26 :	51.0;
	27 :	16.0;	28 :	76.0;	29 :	71.0;	30 :	3.0;	31 :	64.0;
	32 :	69.0;

Origin  10
	17 :	1.0;	18 :	40.0;	19 :	1.0;	20 :	58.0;	21 :	34.0;
	22 :	10.0;	23 :	45.0;	24 :	66.0;	25 :	78.0;	26 :	16.0;
	27 :	14.0;	28 :	24.0;	29 :	53.0;	30 :	75.0;	31 :	41.0;
	32 :	30.0;

Origin  11
	17 :	59.0;	18 :	21.0;	19 :	47.0;	20 :	51.0;	21 :	48.0;
	22 :	14.0;	23 :	42.0;	24 :	4.0;	25 :	27.0;	26 :	50.0;
	27 :	23.0;	28 :	22.0;	29 :	1.0;	30 :	31.0;	31 :	63.0;
	32 :	20.0;

Origin  12
	17 :	65.0;	18 :	46.0;	19 :	33.0;	20 :	2.0;	21 :	81.0;
	22 :	76.0;	23 :	40.0;	24 :	49.0;	25 :	23.0;	26 :	1.0;
	27 :	29.0;	28 :	11.0;	29 :	66.0;	30 :	42.0;	31 :	1.0;
	32 :	13.0;

Origin  13
	17 :	38.0;	18 :	56.0;	19 :	4.0;	20 :	60.0;	21 :	26.0;
	22 :	78.0;	23 :	29.0;	24 :	17.0;	25 :	51.0;	26 :	51.0;
	27 :	42.0;	28 :	19.0;	29 :	14.0;	30 :	29.0;	31 :	61.0;
	32 :	82.0;

Origin  14
	17 :	58.0;	18 :	22.0;	19 :	13.0;	20 :	37.0;	21 :	31.0;
	22 :	29.0;	23 :	47.0;	24 :	9.0;	25 :	82.0;	26 :	13.0;
	27 :	14.0;	28 :	56.0;	29 :	61.0;	30 :	29.0;	31 :	38.0;
	32 :	53.0;

Origin  15
	17 :	57.0;	18 :	55.0;	19 :	41.0;	20 :	26.0;	21 :	12.0;
	22 :	14.0;	23 :	69.0;	24 :	65.0;	25 :	7.0;	26 :	24.0;
	27 :	78.0;	28 :	80.0;	29 :	43.0;	30 :	65.0;	31 :	68.0;
	32 :	42.0;

Origin  16
	17 :	51.0;	18 :	72.0;	19 :	3.0;	20 :	40.0;	21 :	80.0;
	22 :	62.0;	23 :	17.0;	24 :	25.0;	25 :	39.0;	26 :	65.0;
	27 :	20.0;	28 :	78.0;	29 :	56.0;	30 :	34.0;	31 :	75.0;
	32 :	7.0;