<NUMBER OF ZONES> 50
<NUMBER OF NODES> 500
<FIRST THRU NODE> 1
<NUMBER OF LINKS> 760
<ORIGINAL HEADER> 
<END OF METADATA>


~	init_node	term_node	capacity	free_flow_time	original_link	time	;
	1	27	336.0	5.0	0	0	;
	1	31	198.8	5.0	1	0	;
	2	28	486.40000000000003	5.0	2	0	;
	2	32	211.8	5.0	3	0	;
	3	29	350.20000000000005	5.0	4	0	;
	3	33	275.7	5.0	5	0	;
	4	30	127.7	5.0	6	0	;
	4	34	215.60000000000002	5.0	7	0	;
	5	35	219.20000000000002	5.0	8	0	;
	6	32	187.60000000000002	5.0	9	0	;
	6	36	469.40000000000003	5.0	10	0	;
	7	33	401.0	5.0	11	0	;
	7	37	441.20000000000005	5.0	12	0	;
	8	34	459.8	5.0	13	0	;
	8	38	230.10000000000002	5.0	14	0	;
	9	35	455.8	5.0	15	0	;
	9	39	406.0	5.0	16	0	;
	10	40	343.40000000000003	5.0	17	0	;
	11	37	348.1	5.0	18	0	;
	11	41	416.6	5.0	19	0	;
	12	38	465.5	5.0	20	0	;
	12	42	235.20000000000002	5.0	21	0	;
	13	39	115.5	5.0	22	0	;
	13	43	437.8	5.0	23	0	;
	14	40	270.8	5.0	24	0	;
	14	44	342.0	5.0	25	0	;
	15	45	378.6	5.0	26	0	;
	16	42	196.3	5.0	27	0	;
	16	46	322.5	5.0	28	0	;
	17	43	155.4	5.0	29	0	;
	17	47	106.10000000000001	5.0	30	0	;
	18	44	363.6	5.0	31	0	;
	18	48	262.8	5.0	32	0	;
	19	45	161.60000000000002	5.0	33	0	;
	19	49	312.6	5.0	34	0	;
	20	50	400.0	5.0	35	0	;
	21	47	431.40000000000003	5.0	36	0	;
	22	48	154.4	5.0	37	0	;
	23	49	224.9	5.0	38	0	;
	24	50	374.6	5.0	39	0	;
	26	52	336.0	5.0	0	1	;
	26	56	198.8	5.0	1	1	;
	27	53	486.40000000000003	5.0	2	1	;
	27	57	211.8	5.0	3	1	;
	28	54	350.20000000000005	5.0	4	1	;
	28	58	275.7	5.0	5	1	;
	29	55	127.7	5.0	6	1	;
	29	59	215.60000000000002	5.0	7	1	;
	30	60	219.20000000000002	5.0	8	1	;
	31	57	187.60000000000002	5.0	9	1	;
	31	61	469.40000000000003	5.0	10	1	;
	32	58	401.0	5.0	11	1	;
	32	62	441.20000000000005	5.0	12	1	;
	33	59	459.8	5.0	13	1	;
	33	63	230.10000000000002	5.0	14	1	;
	34	60	455.8	5.0	15	1	;
	34	64	406.0	5.0	16	1	;
	35	65	343.40000000000003	5.0	17	1	;
	36	62	348.1	5.0	18	1	;
	36	66	416.6	5.0	19	1	;
	37	63	465.5	5.0	20	1	;
	37	67	235.20000000000002	5.0	21	1	;
	38	64	115.5	5.0	22	1	;
	38	68	437.8	5.0	23	1	;
	39	65	270.8	5.0	24	1	;
	39	69	342.0	5.0	25	1	;
	40	70	378.6	5.0	26	1	;
	41	67	196.3	5.0	27	1	;
	41	71	322.5	5.0	28	1	;
	42	68	155.4	5.0	29	1	;
	42	72	106.10000000000001	5.0	30	1	;
	43	69	363.6	5.0	31	1	;
	43	73	262.8	5.0	32	1	;
	44	70	161.60000000000002	5.0	33	1	;
	44	74	312.6	5.0	34	1	;
	45	75	400.0	5.0	35	1	;
	46	72	431.40000000000003	5.0	36	1	;
	47	73	154.4	5.0	37	1	;
	48	74	224.9	5.0	38	1	;
	49	75	374.6	5.0	39	1	;
	51	77	336.0	5.0	0	2	;
	51	81	198.8	5.0	1	2	;
	52	78	486.40000000000003	5.0	2	2	;
	52	82	211.8	5.0	3	2	;
	53	79	350.20000000000005	5.0	4	2	;
	53	83	275.7	5.0	5	2	;
	54	80	127.7	5.0	6	2	;
	54	84	215.60000000000002	5.0	7	2	;
	55	85	219.20000000000002	5.0	8	2	;
	56	82	187.60000000000002	5.0	9	2	;
	56	86	469.40000000000003	5.0	10	2	;
	57	83	401.0	5.0	11	2	;
	57	87	441.20000000000005	5.0	12	2	;
	58	84	459.8	5.0	13	2	;
	58	88	230.10000000000002	5.0	14	2	;
	59	85	455.8	5.0	15	2	;
	59	89	406.0	5.0	16	2	;
	60	90	343.40000000000003	5.0	17	2	;
	61	87	348.1	5.0	18	2	;
	61	91	416.6	5.0	19	2	;
	62	88	465.5	5.0	20	2	;
	62	92	235.20000000000002	5.0	21	2	;
	63	89	115.5	5.0	22	2	;
	63	93	437.8	5.0	23	2	;
	64	90	270.8	5.0	24	2	;
	64	94	342.0	5.0	25	2	;
	65	95	378.6	5.0	26	2	;
	66	92	196.3	5.0	27	2	;
	66	96	322.5	5.0	28	2	;
	67	93	155.4	5.0	29	2	;
	67	97	106.10000000000001	5.0	30	2	;
	68	94	363.6	5.0	31	2	;
	68	98	262.8	5.0	32	2	;
	69	95	161.60000000000002	5.0	33	2	;
	69	99	312.6	5.0	34	2	;
	70	100	400.0	5.0	35	2	;
	71	97	431.40000000000003	5.0	36	2	;
	72	98	154.4	5.0	37	2	;
	73	99	224.9	5.0	38	2	;
	74	100	374.6	5.0	39	2	;
	76	102	336.0	5.0	0	3	;
	76	106	198.8	5.0	1	3	;
	77	103	486.40000000000003	5.0	2	3	;
	77	107	211.8	5.0	3	3	;
	78	104	350.20000000000005	5.0	4	3	;
	78	108	275.7	5.0	5	3	;
	79	105	127.7	5.0	6	3	;
	79	109	215.60000000000002	5.0	7	3	;
	80	110	219.20000000000002	5.0	8	3	;
	81	107	187.60000000000002	5.0	9	3	;
	81	111	469.40000000000003	5.0	10	3	;
	82	108	401.0	5.0	11	3	;
	82	112	441.20000000000005	5.0	12	3	;
	83	109	459.8	5.0	13	3	;
	83	113	230.10000000000002	5.0	14	3	;
	84	110	455.8	5.0	15	3	;
	84	114	406.0	5.0	16	3	;
	85	115	343.40000000000003	5.0	17	3	;
	86	112	348.1	5.0	18	3	;
	86	116	416.6	5.0	19	3	;
	87	113	465.5	5.0	20	3	;
	87	117	235.20000000000002	5.0	21	3	;
	88	114	115.5	5.0	22	3	;
	88	118	437.8	5.0	23	3	;
	89	115	270.8	5.0	24	3	;
	89	119	342.0	5.0	25	3	;
	90	120	378.6	5.0	26	3	;
	91	117	196.3	5.0	27	3	;
	91	121	322.5	5.0	28	3	;
	92	118	155.4	5.0	29	3	;
	92	122	106.10000000000001	5.0	30	3	;
	93	119	363.6	5.0	31	3	;
	93	123	262.8	5.0	32	3	;
	94	120	161.60000000000002	5.0	33	3	;
	94	124	312.6	5.0	34	3	;
	95	125	400.0	5.0	35	3	;
	96	122	431.40000000000003	5.0	36	3	;
	97	123	154.4	5.0	37	3	;
	98	124	224.9	5.0	38	3	;
	99	125	374.6	5.0	39	3	;
	101	127	336.0	5.0	0	4	;
	101	131	198.8	5.0	1	4	;
	102	128	486.40000000000003	5.0	2	4	;
	102	132	211.8	5.0	3	4	;
	103	129	350.20000000000005	5.0	4	4	;
	103	133	275.7	5.0	5	4	;
	104	130	127.7	5.0	6	4	;
	104	134	215.60000000000002	5.0	7	4	;
	105	135	219.20000000000002	5.0	8	4	;
	106	132	187.60000000000002	5.0	9	4	;
	106	136	469.40000000000003	5.0	10	4	;
	107	133	401.0	5.0	11	4	;
	107	137	441.20000000000005	5.0	12	4	;
	108	134	459.8	5.0	13	4	;
	108	138	230.10000000000002	5.0	14	4	;
	109	135	455.8	5.0	15	4	;
	109	139	406.0	5.0	16	4	;
	110	140	343.40000000000003	5.0	17	4	;
	111	137	348.1	5.0	18	4	;
	111	141	416.6	5.0	19	4	;
	112	138	465.5	5.0	20	4	;
	112	142	235.20000000000002	5.0	21	4	;
	113	139	115.5	5.0	22	4	;
	113	143	437.8	5.0	23	4	;
	114	140	270.8	5.0	24	4	;
	114	144	342.0	5.0	25	4	;
	115	145	378.6	5.0	26	4	;
	116	142	196.3	5.0	27	4	;
	116	146	322.5	5.0	28	4	;
	117	143	155.4	5.0	29	4	;
	117	147	106.10000000000001	5.0	30	4	;
	118	144	363.6	5.0	31	4	;
	118	148	262.8	5.0	32	4	;
	119	145	161.60000000000002	5.0	33	4	;
	119	149	312.6	5.0	34	4	;
	120	150	400.0	5.0	35	4	;
	121	147	431.40000000000003	5.0	36	4	;
	122	148	154.4	5.0	37	4	;
	123	149	224.9	5.0	38	4	;
	124	150	374.6	5.0	39	4	;
	126	152	336.0	5.0	0	5	;
	126	156	198.8	5.0	1	5	;
	127	153	486.40000000000003	5.0	2	5	;
	127	157	211.8	5.0	3	5	;
	128	154	350.20000000000005	5.0	4	5	;
	128	158	275.7	5.0	5	5	;
	129	155	127.7	5.0	6	5	;
	129	159	215.60000000000002	5.0	7	5	;
	130	160	219.20000000000002	5.0	8	5	;
	131	157	187.60000000000002	5.0	9	5	;
	131	161	469.40000000000003	5.0	10	5	;
	132	158	401.0	5.0	11	5	;
	132	162	441.20000000000005	5.0	12	5	;
	133	159	459.8	5.0	13	5	;
	133	163	230.10000000000002	5.0	14	5	;
	134	160	455.8	5.0	15	5	;
	134	164	406.0	5.0	16	5	;
	135	165	343.40000000000003	5.0	17	5	;
	136	162	348.1	5.0	18	5	;
	136	166	416.6	5.0	19	5	;
	137	163	465.5	5.0	20	5	;
	137	167	235.20000000000002	5.0	21	5	;
	138	164	115.5	5.0	22	5	;
	138	168	437.8	5.0	23	5	;
	139	165	270.8	5.0	24	5	;
	139	169	342.0	5.0	25	5	;
	140	170	378.6	5.0	26	5	;
	141	167	196.3	5.0	27	5	;
	141	171	322.5	5.0	28	5	;
	142	168	155.4	5.0	29	5	;
	142	172	106.10000000000001	5.0	30	5	;
	143	169	363.6	5.0	31	5	;
	143	173	262.8	5.0	32	5	;
	144	170	161.60000000000002	5.0	33	5	;
	144	174	312.6	5.0	34	5	;
	145	175	400.0	5.0	35	5	;
	146	172	431.40000000000003	5.0	36	5	;
	147	173	154.4	5.0	37	5	;
	148	174	224.9	5.0	38	5	;
	149	175	374.6	5.0	39	5	;
	151	177	336.0	5.0	0	6	;
	151	181	198.8	5.0	1	6	;
	152	178	486.40000000000003	5.0	2	6	;
	152	182	211.8	5.0	3	6	;
	153	179	350.20000000000005	5.0	4	6	;
	153	183	275.7	5.0	5	6	;
	154	180	127.7	5.0	6	6	;
	154	184	215.60000000000002	5.0	7	6	;
	155	185	219.20000000000002	5.0	8	6	;
	156	182	187.60000000000002	5.0	9	6	;
	156	186	469.40000000000003	5.0	10	6	;
	157	183	401.0	5.0	11	6	;
	157	187	441.20000000000005	5.0	12	6	;
	158	184	459.8	5.0	13	6	;
	158	188	230.10000000000002	5.0	14	6	;
	159	185	455.8	5.0	15	6	;
	159	189	406.0	5.0	16	6	;
	160	190	343.40000000000003	5.0	17	6	;
	161	187	348.1	5.0	18	6	;
	161	191	416.6	5.0	19	6	;
	162	188	465.5	5.0	20	6	;
	162	192	235.20000000000002	5.0	21	6	;
	163	189	115.5	5.0	22	6	;
	163	193	437.8	5.0	23	6	;
	164	190	270.8	5.0	24	6	;
	164	194	342.0	5.0	25	6	;
	165	195	378.6	5.0	26	6	;
	166	192	196.3	5.0	27	6	;
	166	196	322.5	5.0	28	6	;
	167	193	155.4	5.0	29	6	;
	167	197	106.10000000000001	5.0	30	6	;
	168	194	363.6	5.0	31	6	;
	168	198	262.8	5.0	32	6	;
	169	195	161.60000000000002	5.0	33	6	;
	169	199	312.6	5.0	34	6	;
	170	200	400.0	5.0	35	6	;
	171	197	431.40000000000003	5.0	36	6	;
	172	198	154.4	5.0	37	6	;
	173	199	224.9	5.0	38	6	;
	174	200	374.6	5.0	39	6	;
	176	202	336.0	5.0	0	7	;
	176	206	198.8	5.0	1	7	;
	177	203	486.40000000000003	5.0	2	7	;
	177	207	211.8	5.0	3	7	;
	178	204	350.20000000000005	5.0	4	7	;
	178	208	275.7	5.0	5	7	;
	179	205	127.7	5.0	6	7	;
	179	209	215.60000000000002	5.0	7	7	;
	180	210	219.20000000000002	5.0	8	7	;
	181	207	187.60000000000002	5.0	9	7	;
	181	211	469.40000000000003	5.0	10	7	;
	182	208	401.0	5.0	11	7	;
	182	212	441.20000000000005	5.0	12	7	;
	183	209	459.8	5.0	13	7	;
	183	213	230.10000000000002	5.0	14	7	;
	184	210	455.8	5.0	15	7	;
	184	214	406.0	5.0	16	7	;
	185	215	343.40000000000003	5.0	17	7	;
	186	212	348.1	5.0	18	7	;
	186	216	416.6	5.0	19	7	;
	187	213	465.5	5.0	20	7	;
	187	217	235.20000000000002	5.0	21	7	;
	188	214	115.5	5.0	22	7	;
	188	218	437.8	5.0	23	7	;
	189	215	270.8	5.0	24	7	;
	189	219	342.0	5.0	25	7	;
	190	220	378.6	5.0	26	7	;
	191	217	196.3	5.0	27	7	;
	191	221	322.5	5.0	28	7	;
	192	218	155.4	5.0	29	7	;
	192	222	106.10000000000001	5.0	30	7	;
	193	219	363.6	5.0	31	7	;
	193	223	262.8	5.0	32	7	;
	194	220	161.60000000000002	5.0	33	7	;
	194	224	312.6	5.0	34	7	;
	195	225	400.0	5.0	35	7	;
	196	222	431.40000000000003	5.0	36	7	;
	197	223	154.4	5.0	37	7	;
	198	224	224.9	5.0	38	7	;
	199	225	374.6	5.0	39	7	;
	201	227	336.0	5.0	0	8	;
	201	231	198.8	5.0	1	8	;
	202	228	486.40000000000003	5.0	2	8	;
	202	232	211.8	5.0	3	8	;
	203	229	350.20000000000005	5.0	4	8	;
	203	233	275.7	5.0	5	8	;
	204	230	127.7	5.0	6	8	;
	204	234	215.60000000000002	5.0	7	8	;
	205	235	219.20000000000002	5.0	8	8	;
	206	232	187.60000000000002	5.0	9	8	;
	206	236	469.40000000000003	5.0	10	8	;
	207	233	401.0	5.0	11	8	;
	207	237	441.20000000000005	5.0	12	8	;
	208	234	459.8	5.0	13	8	;
	208	238	230.10000000000002	5.0	14	8	;
	209	235	455.8	5.0	15	8	;
	209	239	406.0	5.0	16	8	;
	210	240	343.40000000000003	5.0	17	8	;
	211	237	348.1	5.0	18	8	;
	211	241	416.6	5.0	19	8	;
	212	238	465.5	5.0	20	8	;
	212	242	235.20000000000002	5.0	21	8	;
	213	239	115.5	5.0	22	8	;
	213	243	437.8	5.0	23	8	;
	214	240	270.8	5.0	24	8	;
	214	244	342.0	5.0	25	8	;
	215	245	378.6	5.0	26	8	;
	216	242	196.3	5.0	27	8	;
	216	246	322.5	5.0	28	8	;
	217	243	155.4	5.0	29	8	;
	217	247	106.10000000000001	5.0	30	8	;
	218	244	363.6	5.0	31	8	;
	218	248	262.8	5.0	32	8	;
	219	245	161.60000000000002	5.0	33	8	;
	219	249	312.6	5.0	34	8	;
	220	250	400.0	5.0	35	8	;
	221	247	431.40000000000003	5.0	36	8	;
	222	248	154.4	5.0	37	8	;
	223	249	224.9	5.0	38	8	;
	224	250	374.6	5.0	39	8	;
	226	252	336.0	5.0	0	9	;
	226	256	198.8	5.0	1	9	;
	227	253	486.40000000000003	5.0	2	9	;
	227	257	211.8	5.0	3	9	;
	228	254	350.20000000000005	5.0	4	9	;
	228	258	275.7	5.0	5	9	;
	229	255	127.7	5.0	6	9	;
	229	259	215.60000000000002	5.0	7	9	;
	230	260	219.20000000000002	5.0	8	9	;
	231	257	187.60000000000002	5.0	9	9	;
	231	261	469.40000000000003	5.0	10	9	;
	232	258	401.0	5.0	11	9	;
	232	262	441.20000000000005	5.0	12	9	;
	233	259	459.8	5.0	13	9	;
	233	263	230.10000000000002	5.0	14	9	;
	234	260	455.8	5.0	15	9	;
	234	264	406.0	5.0	16	9	;
	235	265	343.40000000000003	5.0	17	9	;
	236	262	348.1	5.0	18	9	;
	236	266	416.6	5.0	19	9	;
	237	263	465.5	5.0	20	9	;
	237	267	235.20000000000002	5.0	21	9	;
	238	264	115.5	5.0	22	9	;
	238	268	437.8	5.0	23	9	;
	239	265	270.8	5.0	24	9	;
	239	269	342.0	5.0	25	9	;
	240	270	378.6	5.0	26	9	;
	241	267	196.3	5.0	27	9	;
	241	271	322.5	5.0	28	9	;
	242	268	155.4	5.0	29	9	;
	242	272	106.10000000000001	5.0	30	9	;
	243	269	363.6	5.0	31	9	;
	243	273	262.8	5.0	32	9	;
	244	270	161.60000000000002	5.0	33	9	;
	244	274	312.6	5.0	34	9	;
	245	275	400.0	5.0	35	9	;
	246	272	431.40000000000003	5.0	36	9	;
	247	273	154.4	5.0	37	9	;
	248	274	224.9	5.0	38	9	;
	249	275	374.6	5.0	39	9	;
	251	277	336.0	5.0	0	10	;
	251	281	198.8	5.0	1	10	;
	252	278	486.40000000000003	5.0	2	10	;
	252	282	211.8	5.0	3	10	;
	253	279	350.20000000000005	5.0	4	10	;
	253	283	275.7	5.0	5	10	;
	254	280	127.7	5.0	6	10	;
	254	284	215.60000000000002	5.0	7	10	;
	255	285	219.20000000000002	5.0	8	10	;
	256	282	187.60000000000002	5.0	9	10	;
	256	286	469.40000000000003	5.0	10	10	;
	257	283	401.0	5.0	11	10	;
	257	287	441.20000000000005	5.0	12	10	;
	258	284	459.8	5.0	13	10	;
	258	288	230.10000000000002	5.0	14	10	;
	259	285	455.8	5.0	15	10	;
	259	289	406.0	5.0	16	10	;
	260	290	343.40000000000003	5.0	17	10	;
	261	287	348.1	5.0	18	10	;
	261	291	416.6	5.0	19	10	;
	262	288	465.5	5.0	20	10	;
	262	292	235.20000000000002	5.0	21	10	;
	263	289	115.5	5.0	22	10	;
	263	293	437.8	5.0	23	10	;
	264	290	270.8	5.0	24	10	;
	264	294	342.0	5.0	25	10	;
	265	295	378.6	5.0	26	10	;
	266	292	196.3	5.0	27	10	;
	266	296	322.5	5.0	28	10	;
	267	293	155.4	5.0	29	10	;
	267	297	106.10000000000001	5.0	30	10	;
	268	294	363.6	5.0	31	10	;
	268	298	262.8	5.0	32	10	;
	269	295	161.60000000000002	5.0	33	10	;
	269	299	312.6	5.0	34	10	;
	270	300	400.0	5.0	35	10	;
	271	297	431.40000000000003	5.0	36	10	;
	272	298	154.4	5.0	37	10	;
	273	299	224.9	5.0	38	10	;
	274	300	374.6	5.0	39	10	;
	276	302	336.0	5.0	0	11	;
	276	306	198.8	5.0	1	11	;
	277	303	486.40000000000003	5.0	2	11	;
	277	307	211.8	5.0	3	11	;
	278	304	350.20000000000005	5.0	4	11	;
	278	308	275.7	5.0	5	11	;
	279	305	127.7	5.0	6	11	;
	279	309	215.60000000000002	5.0	7	11	;
	280	310	219.20000000000002	5.0	8	11	;
	281	307	187.60000000000002	5.0	9	11	;
	281	311	469.40000000000003	5.0	10	11	;
	282	308	401.0	5.0	11	11	;
	282	312	441.20000000000005	5.0	12	11	;
	283	309	459.8	5.0	13	11	;
	283	313	230.10000000000002	5.0	14	11	;
	284	310	455.8	5.0	15	11	;
	284	314	406.0	5.0	16	11	;
	285	315	343.40000000000003	5.0	17	11	;
	286	312	348.1	5.0	18	11	;
	286	316	416.6	5.0	19	11	;
	287	313	465.5	5.0	20	11	;
	287	317	235.20000000000002	5.0	21	11	;
	288	314	115.5	5.0	22	11	;
	288	318	437.8	5.0	23	11	;
	289	315	270.8	5.0	24	11	;
	289	319	342.0	5.0	25	11	;
	290	320	378.6	5.0	26	11	;
	291	317	196.3	5.0	27	11	;
	291	321	322.5	5.0	28	11	;
	292	318	155.4	5.0	29	11	;
	292	322	106.10000000000001	5.0	30	11	;
	293	319	363.6	5.0	31	11	;
	293	323	262.8	5.0	32	11	;
	294	320	161.60000000000002	5.0	33	11	;
	294	324	312.6	5.0	34	11	;
	295	325	400.0	5.0	35	11	;
	296	322	431.40000000000003	5.0	36	11	;
	297	323	154.4	5.0	37	11	;
	298	324	224.9	5.0	38	11	;
	299	325	374.6	5.0	39	11	;
	301	327	336.0	5.0	0	12	;
	301	331	198.8	5.0	1	12	;
	302	328	486.40000000000003	5.0	2	12	;
	302	332	211.8	5.0	3	12	;
	303	329	350.20000000000005	5.0	4	12	;
	303	333	275.7	5.0	5	12	;
	304	330	127.7	5.0	6	12	;
	304	334	215.60000000000002	5.0	7	12	;
	305	335	219.20000000000002	5.0	8	12	;
	306	332	187.60000000000002	5.0	9	12	;
	306	336	469.40000000000003	5.0	10	12	;
	307	333	401.0	5.0	11	12	;
	307	337	441.20000000000005	5.0	12	12	;
	308	334	459.8	5.0	13	12	;
	308	338	230.10000000000002	5.0	14	12	;
	309	335	455.8	5.0	15	12	;
	309	339	406.0	5.0	16	12	;
	310	340	343.40000000000003	5.0	17	12	;
	311	337	348.1	5.0	18	12	;
	311	341	416.6	5.0	19	12	;
	312	338	465.5	5.0	20	12	;
	312	342	235.20000000000002	5.0	21	12	;
	313	339	115.5	5.0	22	12	;
	313	343	437.8	5.0	23	12	;
	314	340	270.8	5.0	24	12	;
	314	344	342.0	5.0	25	12	;
	315	345	378.6	5.0	26	12	;
	316	342	196.3	5.0	27	12	;
	316	346	322.5	5.0	28	12	;
	317	343	155.4	5.0	29	12	;
	317	347	106.10000000000001	5.0	30	12	;
	318	344	363.6	5.0	31	12	;
	318	348	262.8	5.0	32	12	;
	319	345	161.60000000000002	5.0	33	12	;
	319	349	312.6	5.0	34	12	;
	320	350	400.0	5.0	35	12	;
	321	347	431.40000000000003	5.0	36	12	;
	322	348	154.4	5.0	37	12	;
	323	349	224.9	5.0	38	12	;
	324	350	374.6	5.0	39	12	;
	326	352	336.0	5.0	0	13	;
	326	356	198.8	5.0	1	13	;
	327	353	486.40000000000003	5.0	2	13	;
	327	357	211.8	5.0	3	13	;
	328	354	350.20000000000005	5.0	4	13	;
	328	358	275.7	5.0	5	13	;
	329	355	127.7	5.0	6	13	;
	329	359	215.60000000000002	5.0	7	13	;
	330	360	219.20000000000002	5.0	8	13	;
	331	357	187.60000000000002	5.0	9	13	;
	331	361	469.40000000000003	5.0	10	13	;
	332	358	401.0	5.0	11	13	;
	332	362	441.20000000000005	5.0	12	13	;
	333	359	459.8	5.0	13	13	;
	333	363	230.10000000000002	5.0	14	13	;
	334	360	455.8	5.0	15	13	;
	334	364	406.0	5.0	16	13	;
	335	365	343.40000000000003	5.0	17	13	;
	336	362	348.1	5.0	18	13	;
	336	366	416.6	5.0	19	13	;
	337	363	465.5	5.0	20	13	;
	337	367	235.20000000000002	5.0	21	13	;
	338	364	115.5	5.0	22	13	;
	338	368	437.8	5.0	23	13	;
	339	365	270.8	5.0	24	13	;
	339	369	342.0	5.0	25	13	;
	340	370	378.6	5.0	26	13	;
	341	367	196.3	5.0	27	13	;
	341	371	322.5	5.0	28	13	;
	342	368	155.4	5.0	29	13	;
	342	372	106.10000000000001	5.0	30	13	;
	343	369	363.6	5.0	31	13	;
	343	373	262.8	5.0	32	13	;
	344	370	161.60000000000002	5.0	33	13	;
	344	374	312.6	5.0	34	13	;
	345	375	400.0	5.0	35	13	;
	346	372	431.40000000000003	5.0	36	13	;
	347	373	154.4	5.0	37	13	;
	348	374	224.9	5.0	38	13	;
	349	375	374.6	5.0	39	13	;
	351	377	336.0	5.0	0	14	;
	351	381	198.8	5.0	1	14	;
	352	378	486.40000000000003	5.0	2	14	;
	352	382	211.8	5.0	3	14	;
	353	379	350.20000000000005	5.0	4	14	;
	353	383	275.7	5.0	5	14	;
	354	380	127.7	5.0	6	14	;
	354	384	215.60000000000002	5.0	7	14	;
	355	385	219.20000000000002	5.0	8	14	;
	356	382	187.60000000000002	5.0	9	14	;
	356	386	469.40000000000003	5.0	10	14	;
	357	383	401.0	5.0	11	14	;
	357	387	441.20000000000005	5.0	12	14	;
	358	384	459.8	5.0	13	14	;
	358	388	230.10000000000002	5.0	14	14	;
	359	385	455.8	5.0	15	14	;
	359	389	406.0	5.0	16	14	;
	360	390	343.40000000000003	5.0	17	14	;
	361	387	348.1	5.0	18	14	;
	361	391	416.6	5.0	19	14	;
	362	388	465.5	5.0	20	14	;
	362	392	235.20000000000002	5.0	21	14	;
	363	389	115.5	5.0	22	14	;
	363	393	437.8	5.0	23	14	;
	364	390	270.8	5.0	24	14	;
	364	394	342.0	5.0	25	14	;
	365	395	378.6	5.0	26	14	;
	366	392	196.3	5.0	27	14	;
	366	396	322.5	5.0	28	14	;
	367	393	155.4	5.0	29	14	;
	367	397	106.10000000000001	5.0	30	14	;
	368	394	363.6	5.0	31	14	;
	368	398	262.8	5.0	32	14	;
	369	395	161.60000000000002	5.0	33	14	;
	369	399	312.6	5.0	34	14	;
	370	400	400.0	5.0	35	14	;
	371	397	431.40000000000003	5.0	36	14	;
	372	398	154.4	5.0	37	14	;
	373	399	224.9	5.0	38	14	;
	374	400	374.6	5.0	39	14	;
	376	402	336.0	5.0	0	15	;
	376	406	198.8	5.0	1	15	;
	377	403	486.40000000000003	5.0	2	15	;
	377	407	211.8	5.0	3	15	;
	378	404	350.20000000000005	5.0	4	15	;
	378	408	275.7	5.0	5	15	;
	379	405	127.7	5.0	6	15	;
	379	409	215.60000000000002	5.0	7	15	;
	380	410	219.20000000000002	5.0	8	15	;
	381	407	187.60000000000002	5.0	9	15	;
	381	411	469.40000000000003	5.0	10	15	;
	382	408	401.0	5.0	11	15	;
	382	412	441.20000000000005	5.0	12	15	;
	383	409	459.8	5.0	13	15	;
	383	413	230.10000000000002	5.0	14	15	;
	384	410	455.8	5.0	15	15	;
	384	414	406.0	5.0	16	15	;
	385	415	343.40000000000003	5.0	17	15	;
	386	412	348.1	5.0	18	15	;
	386	416	416.6	5.0	19	15	;
	387	413	465.5	5.0	20	15	;
	387	417	235.20000000000002	5.0	21	15	;
	388	414	115.5	5.0	22	15	;
	388	418	437.8	5.0	23	15	;
	389	415	270.8	5.0	24	15	;
	389	419	342.0	5.0	25	15	;
	390	420	378.6	5.0	26	15	;
	391	417	196.3	5.0	27	15	;
	391	421	322.5	5.0	28	15	;
	392	418	155.4	5.0	29	15	;
	392	422	106.10000000000001	5.0	30	15	;
	393	419	363.6	5.0	31	15	;
	393	423	262.8	5.0	32	15	;
	394	420	161.60000000000002	5.0	33	15	;
	394	424	312.6	5.0	34	15	;
	395	425	400.0	5.0	35	15	;
	396	422	431.40000000000003	5.0	36	15	;
	397	423	154.4	5.0	37	15	;
	398	424	224.9	5.0	38	15	;
	399	425	374.6	5.0	39	15	;
	401	427	336.0	5.0	0	16	;
	401	431	198.8	5.0	1	16	;
	402	428	486.40000000000003	5.0	2	16	;
	402	432	211.8	5.0	3	16	;
	403	429	350.20000000000005	5.0	4	16	;
	403	433	275.7	5.0	5	16	;
	404	430	127.7	5.0	6	16	;
	404	434	215.60000000000002	5.0	7	16	;
	405	435	219.20000000000002	5.0	8	16	;
	406	432	187.60000000000002	5.0	9	16	;
	406	436	469.40000000000003	5.0	10	16	;
	407	433	401.0	5.0	11	16	;
	407	437	441.20000000000005	5.0	12	16	;
	408	434	459.8	5.0	13	16	;
	408	438	230.10000000000002	5.0	14	16	;
	409	435	455.8	5.0	15	16	;
	409	439	406.0	5.0	16	16	;
	410	440	343.40000000000003	5.0	17	16	;
	411	437	348.1	5.0	18	16	;
	411	441	416.6	5.0	19	16	;
	412	438	465.5	5.0	20	16	;
	412	442	235.20000000000002	5.0	21	16	;
	413	439	115.5	5.0	22	16	;
	413	443	437.8	5.0	23	16	;
	414	440	270.8	5.0	24	16	;
	414	444	342.0	5.0	25	16	;
	415	445	378.6	5.0	26	16	;
	416	442	196.3	5.0	27	16	;
	416	446	322.5	5.0	28	16	;
	417	443	155.4	5.0	29	16	;
	417	447	106.10000000000001	5.0	30	16	;
	418	444	363.6	5.0	31	16	;
	418	448	262.8	5.0	32	16	;
	419	445	161.60000000000002	5.0	33	16	;
	419	449	312.6	5.0	34	16	;
	420	450	400.0	5.0	35	16	;
	421	447	431.40000000000003	5.0	36	16	;
	422	448	154.4	5.0	37	16	;
	423	449	224.9	5.0	38	16	;
	424	450	374.6	5.0	39	16	;
	426	452	336.0	5.0	0	17	;
	426	456	198.8	5.0	1	17	;
	427	453	486.40000000000003	5.0	2	17	;
	427	457	211.8	5.0	3	17	;
	428	454	350.20000000000005	5.0	4	17	;
	428	458	275.7	5.0	5	17	;
	429	455	127.7	5.0	6	17	;
	429	459	215.60000000000002	5.0	7	17	;
	430	460	219.20000000000002	5.0	8	17	;
	431	457	187.60000000000002	5.0	9	17	;
	431	461	469.40000000000003	5.0	10	17	;
	432	458	401.0	5.0	11	17	;
	432	462	441.20000000000005	5.0	12	17	;
	433	459	459.8	5.0	13	17	;
	433	463	230.10000000000002	5.0	14	17	;
	434	460	455.8	5.0	15	17	;
	434	464	406.0	5.0	16	17	;
	435	465	343.40000000000003	5.0	17	17	;
	436	462	348.1	5.0	18	17	;
	436	466	416.6	5.0	19	17	;
	437	463	465.5	5.0	20	17	;
	437	467	235.20000000000002	5.0	21	17	;
	438	464	115.5	5.0	22	17	;
	438	468	437.8	5.0	23	17	;
	439	465	270.8	5.0	24	17	;
	439	469	342.0	5.0	25	17	;
	440	470	378.6	5.0	26	17	;
	441	467	196.3	5.0	27	17	;
	441	471	322.5	5.0	28	17	;
	442	468	155.4	5.0	29	17	;
	442	472	106.10000000000001	5.0	30	17	;
	443	469	363.6	5.0	31	17	;
	443	473	262.8	5.0	32	17	;
	444	470	161.60000000000002	5.0	33	17	;
	444	474	312.6	5.0	34	17	;
	445	475	400.0	5.0	35	17	;
	446	472	431.40000000000003	5.0	36	17	;
	447	473	154.4	5.0	37	17	;
	448	474	224.9	5.0	38	17	;
	449	475	374.6	5.0	39	17	;
	451	477	336.0	5.0	0	18	;
	451	481	198.8	5.0	1	18	;
	452	478	486.40000000000003	5.0	2	18	;
	452	482	211.8	5.0	3	18	;
	453	479	350.20000000000005	5.0	4	18	;
	453	483	275.7	5.0	5	18	;
	454	480	127.7	5.0	6	18	;
	454	484	215.60000000000002	5.0	7	18	;
	455	485	219.20000000000002	5.0	8	18	;
	456	482	187.60000000000002	5.0	9	18	;
	456	486	469.40000000000003	5.0	10	18	;
	457	483	401.0	5.0	11	18	;
	457	487	441.20000000000005	5.0	12	18	;
	458	484	459.8	5.0	13	18	;
	458	488	230.10000000000002	5.0	14	18	;
	459	485	455.8	5.0	15	18	;
	459	489	406.0	5.0	16	18	;
	460	490	343.40000000000003	5.0	17	18	;
	461	487	348.1	5.0	18	18	;
	461	491	416.6	5.0	19	18	;
	462	488	465.5	5.0	20	18	;
	462	492	235.20000000000002	5.0	21	18	;
	463	489	115.5	5.0	22	18	;
	463	493	437.8	5.0	23	18	;
	464	490	270.8	5.0	24	18	;
	464	494	342.0	5.0	25	18	;
	465	495	378.6	5.0	26	18	;
	466	492	196.3	5.0	27	18	;
	466	496	322.5	5.0	28	18	;
	467	493	155.4	5.0	29	18	;
	467	497	106.10000000000001	5.0	30	18	;
	468	494	363.6	5.0	31	18	;
	468	498	262.8	5.0	32	18	;
	469	495	161.60000000000002	5.0	33	18	;
	469	499	312.6	5.0	34	18	;
	470	500	400.0	5.0	35	18	;
	471	497	431.40000000000003	5.0	36	18	;
	472	498	154.4	5.0	37	18	;
	473	499	224.9	5.0	38	18	;
	474	500	374.6	5.0	39	18	;