<NUMBER OF ZONES> 50
<TOTAL OD FLOW> 10000.0
<END OF METADATA>



Origin  1
	26 :	28.0;	27 :	9.0;	28 :	24.0;	29 :	2.0;	30 :	31.0;
	31 :	25.0;	32 :	12.0;	33 :	15.0;	34 :	23.0;	35 :	15.0;
	36 :	6.0;	37 :	0.0;	38 :	5.0;	39 :	6.0;	40 :	19.0;
	41 :	6.0;	42 :	18.0;	43 :	5.0;	44 :	18.0;	45 :	4.0;
	46 :	26.0;	47 :	26.0;	48 :	26.0;	49 :	30.0;	50 :	31.0;


Origin  2
	26 :	7.0;	27 :	26.0;	28 :	4.0;	29 :	5.0;	30 :	19.0;
	31 :	1.0;	32 :	18.0;	33 :	1.0;	34 :	15.0;	35 :	21.0;
	36 :	10.0;	37 :	15.0;	38 :	21.0;	39 :	13.0;	40 :	21.0;
	41 :	21.0;	42 :	0.0;	43 :	18.0;	44 :	16.0;	45 :	1.0;
	46 :	9.0;	47 :	25.0;	48 :	25.0;	49 :	7.0;	50 :	9.0;


Origin  3
	26 :	12.0;	27 :	31.0;	28 :	25.0;	29 :	9.0;	30 :	29.0;
	31 :	13.0;	32 :	10.0;	33 :	11.0;	34 :	17.0;	35 :	26.0;
	36 :	22.0;	37 :	16.0;	38 :	25.0;	39 :	5.0;	40 :	17.0;
	41 :	21.0;	42 :	1.0;	43 :	28.0;	44 :	10.0;	45 :	27.0;
	46 :	1.0;	47 :	31.0;	48 :	18.0;	49 :	30.0;	50 :	25.0;


Origin  4
	26 :	19.0;	27 :	4.0;	28 :	17.0;	29 :	23.0;	30 :	26.0;
	31 :	11.0;	32 :	29.0;	33 :	11.0;	34 :	5.0;	35 :	14.0;
	36 :	2.0;	37 :	1.0;	38 :	5.0;	39 :	22.0;	40 :	11.0;
	41 :	9.0;	42 :	22.0;	43 :	30.0;	44 :	25.0;	45 :	25.0;
	46 :	30.0;	47 :	22.0;	48 :	17.0;	49 :	13.0;	50 :	25.0;


Origin  5
	26 :	21.0;	27 :	5.0;	28 :	15.0;	29 :	30.0;	30 :	29.0;
	31 :	4.0;	32 :	4.0;	33 :	24.0;	34 :	26.0;	35 :	26.0;
	36 :	26.0;	37 :	20.0;	38 :	9.0;	39 :	20.0;	40 :	15.0;
	41 :	24.0;	42 :	26.0;	43 :	30.0;	44 :	14.0;	45 :	4.0;
	46 :	27.0;	47 :	6.0;	48 :	22.0;	49 :	9.0;	50 :	12.0;


Origin  6
	26 :	27.0;	27 :	12.0;	28 :	26.0;	29 :	23.0;	30 :	30.0;
	31 :	4.0;	32 :	26.0;	33 :	10.0;	34 :	5.0;	35 :	10.0;
	36 :	22.0;	37 :	19.0;	38 :	11.0;	39 :	5.0;	40 :	6.0;
	41 :	18.0;	42 :	18.0;	43 :	28.0;	44 :	7.0;	45 :	8.0;
	46 :	16.0;	47 :	20.0;	48 :	2.0;	49 :	5.0;	50 :	7.0;


Origin  7
	26 :	23.0;	27 :	13.0;	28 :	10.0;	29 :	22.0;	30 :	8.0;
	31 :	21.0;	32 :	4.0;	33 :	30.0;	34 :	30.0;	35 :	16.0;
	36 :	31.0;	37 :	3.0;	38 :	13.0;	39 :	7.0;	40 :	8.0;
	41 :	20.0;	42 :	7.0;	43 :	23.0;	44 :	5.0;	45 :	20.0;
	46 :	13.0;	47 :	15.0;	48 :	16.0;	49 :	7.0;	50 :	20.0;


Origin  8
	26 :	19.0;	27 :	24.0;	28 :	13.0;	29 :	30.0;	30 :	16.0;
	31 :	6.0;	32 :	6.0;	33 :	24.0;	34 :	24.0;	35 :	19.0;
	36 :	9.0;	37 :	5.0;	38 :	10.0;	39 :	20.0;	40 :	21.0;
	41 :	17.0;	42 :	29.0;	43 :	26.0;	44 :	12.0;	45 :	20.0;
	46 :	7.0;	47 :	12.0;	48 :	24.0;	49 :	7.0;	50 :	13.0;


Origin  9
	26 :	29.0;	27 :	2.0;	28 :	24.0;	29 :	11.0;	30 :	15.0;
	31 :	10.0;	32 :	16.0;	33 :	9.0;	34 :	9.0;	35 :	22.0;
	36 :	3.0;	37 :	9.0;	38 :	10.0;	39 :	30.0;	40 :	16.0;
	41 :	22.0;	42 :	27.0;	43 :	30.0;	44 :	29.0;	45 :	27.0;
	46 :	12.0;	47 :	12.0;	48 :	13.0;	49 :	30.0;	50 :	29.0;


Origin  10
	26 :	1.0;	27 :	9.0;	28 :	3.0;	29 :	6.0;	30 :	26.0;
	31 :	18.0;	32 :	15.0;	33 :	7.0;	34 :	0.0;	35 :	7.0;
	36 :	17.0;	37 :	3.0;	38 :	31.0;	39 :	18.0;	40 :	23.0;
	41 :	8.0;	42 :	7.0;	43 :	8.0;	44 :	14.0;	45 :	4.0;
	46 :	19.0;	47 :	1.0;	48 :	26.0;	49 :	25.0;	50 :	1.0;


Origin  11
	26 :	13.0;	27 :	26.0;	28 :	28.0;	29 :	8.0;	30 :	18.0;
	31 :	13.0;	32 :	22.0;	33 :	27.0;	34 :	8.0;	35 :	20.0;
	36 :	4.0;	37 :	31.0;	38 :	25.0;	39 :	22.0;	40 :	2.0;
	41 :	18.0;	42 :	29.0;	43 :	14.0;	44 :	27.0;	45 :	25.0;
	46 :	22.0;	47 :	18.0;	48 :	19.0;	49 :	18.0;	50 :	12.0;


Origin  12
	26 :	25.0;	27 :	28.0;	28 :	28.0;	29 :	15.0;	30 :	11.0;
	31 :	20.0;	32 :	15.0;	33 :	3.0;	34 :	18.0;	35 :	6.0;
	36 :	31.0;	37 :	27.0;	38 :	3.0;	39 :	30.0;	40 :	14.0;
	41 :	2.0;	42 :	27.0;	43 :	31.0;	44 :	6.0;	45 :	23.0;
	46 :	22.0;	47 :	17.0;	48 :	23.0;	49 :	23.0;	50 :	23.0;


Origin  13
	26 :	18.0;	27 :	27.0;	28 :	7.0;	29 :	13.0;	30 :	4.0;
	31 :	7.0;	32 :	24.0;	33 :	12.0;	34 :	25.0;	35 :	31.0;
	36 :	18.0;	37 :	19.0;	38 :	7.0;	39 :	27.0;	40 :	16.0;
	41 :	10.0;	42 :	3.0;	43 :	30.0;	44 :	14.0;	45 :	16.0;
	46 :	16.0;	47 :	3.0;	48 :	14.0;	49 :	14.0;	50 :	5.0;


Origin  14
	26 :	8.0;	27 :	15.0;	28 :	29.0;	29 :	14.0;	30 :	7.0;
	31 :	27.0;	32 :	19.0;	33 :	23.0;	34 :	3.0;	35 :	19.0;
	36 :	26.0;	37 :	23.0;	38 :	21.0;	39 :	2.0;	40 :	21.0;
	41 :	22.0;	42 :	10.0;	43 :	30.0;	44 :	25.0;	45 :	14.0;
	46 :	27.0;	47 :	4.0;	48 :	22.0;	49 :	12.0;	50 :	24.0;


Origin  15
	26 :	8.0;	27 :	23.0;	28 :	4.0;	29 :	4.0;	30 :	3.0;
	31 :	22.0;	32 :	18.0;	33 :	19.0;	34 :	5.0;	35 :	15.0;
	36 :	8.0;	37 :	2.0;	38 :	25.0;	39 :	26.0;	40 :	26.0;
	41 :	23.0;	42 :	8.0;	43 :	29.0;	44 :	10.0;	45 :	12.0;
	46 :	14.0;	47 :	17.0;	48 :	7.0;	49 :	12.0;	50 :	16.0;


Origin  16
	26 :	2.0;	27 :	18.0;	28 :	7.0;	29 :	2.0;	30 :	6.0;
	31 :	8.0;	32 :	17.0;	33 :	29.0;	34 :	15.0;	35 :	14.0;
	36 :	2.0;	37 :	30.0;	38 :	23.0;	39 :	28.0;	40 :	16.0;
	41 :	15.0;	42 :	12.0;	43 :	10.0;	44 :	13.0;	45 :	11.0;
	46 :	9.0;	47 :	11.0;	48 :	30.0;	49 :	16.0;	50 :	14.0;


Origin  17
	26 :	20.0;	27 :	24.0;	28 :	31.0;	29 :	24.0;	30 :	9.0;
	31 :	6.0;	32 :	29.0;	33 :	26.0;	34 :	25.0;	35 :	23.0;
	36 :	9.0;	37 :	15.0;	38 :	2.0;	39 :	7.0;	40 :	4.0;
	41 :	10.0;	42 :	13.0;	43 :	27.0;	44 :	22.0;	45 :	29.0;
	46 :	16.0;	47 :	6.0;	48 :	25.0;	49 :	29.0;	50 :	3.0;


Origin  18
	26 :	19.0;	27 :	9.0;	28 :	7.0;	29 :	19.0;	30 :	18.0;
	31 :	4.0;	32 :	21.0;	33 :	21.0;	34 :	31.0;	35 :	20.0;
	36 :	7.0;	37 :	18.0;	38 :	22.0;	39 :	23.0;	40 :	10.0;
	41 :	16.0;	42 :	22.0;	43 :	25.0;	44 :	17.0;	45 :	13.0;
	46 :	21.0;	47 :	27.0;	48 :	10.0;	49 :	2.0;	50 :	27.0;


Origin  19
	26 :	15.0;	27 :	5.0;	28 :	28.0;	29 :	9.0;	30 :	7.0;
	31 :	13.0;	32 :	21.0;	33 :	30.0;	34 :	10.0;	35 :	10.0;
	36 :	25.0;	37 :	10.0;	38 :	15.0;	39 :	6.0;	40 :	3.0;
	41 :	9.0;	42 :	10.0;	43 :	26.0;	44 :	13.0;	45 :	3.0;
	46 :	6.0;	47 :	0.0;	48 :	21.0;	49 :	26.0;	50 :	15.0;


Origin  20
	26 :	29.0;	27 :	14.0;	28 :	15.0;	29 :	24.0;	30 :	29.0;
	31 :	26.0;	32 :	25.0;	33 :	18.0;	34 :	11.0;	35 :	11.0;
	36 :	8.0;	37 :	6.0;	38 :	1.0;	39 :	21.0;	40 :	26.0;
	41 :	18.0;	42 :	10.0;	43 :	22.0;	44 :	19.0;	45 :	0.0;
	46 :	18.0;	47 :	25.0;	48 :	20.0;	49 :	11.0;	50 :	7.0;


Origin  21
	26 :	13.0;	27 :	31.0;	28 :	10.0;	29 :	7.0;	30 :	0.0;
	31 :	26.0;	32 :	31.0;	33 :	6.0;	34 :	18.0;	35 :	6.0;
	36 :	31.0;	37 :	26.0;	38 :	6.0;	39 :	4.0;	40 :	13.0;
	41 :	25.0;	42 :	17.0;	43 :	2.0;	44 :	3.0;	45 :	2.0;
	46 :	13.0;	47 :	30.0;	48 :	17.0;	49 :	14.0;	50 :	16.0;


Origin  22
	26 :	32.0;	27 :	3.0;	28 :	27.0;	29 :	13.0;	30 :	12.0;
	31 :	24.0;	32 :	16.0;	33 :	14.0;	34 :	25.0;	35 :	24.0;
	36 :	1.0;	37 :	14.0;	38 :	7.0;	39 :	8.0;	40 :	31.0;
	41 :	28.0;	42 :	0.0;	43 :	17.0;	44 :	13.0;	45 :	1.0;
	46 :	13.0;	47 :	30.0;	48 :	10.0;	49 :	31.0;	50 :	24.0;


Origin  23
	26 :	8.0;	27 :	7.0;	28 :	11.0;	29 :	24.0;	30 :	30.0;
	31 :	5.0;	32 :	17.0;	33 :	27.0;	34 :	7.0;	35 :	8.0;
	36 :	5.0;	37 :	14.0;	38 :	18.0;	39 :	1.0;	40 :	15.0;
	41 :	1.0;	42 :	4.0;	43 :	12.0;	44 :	14.0;	45 :	26.0;
	46 :	28.0;	47 :	14.0;	48 :	9.0;	49 :	18.0;	50 :	1.0;


Origin  24
	26 :	29.0;	27 :	4.0;	28 :	27.0;	29 :	30.0;	30 :	4.0;
	31 :	26.0;	32 :	9.0;	33 :	0.0;	34 :	30.0;	35 :	7.0;
	36 :	27.0;	37 :	31.0;	38 :	3.0;	39 :	27.0;	40 :	12.0;
	41 :	22.0;	42 :	3.0;	43 :	27.0;	44 :	8.0;	45 :	11.0;
	46 :	16.0;	47 :	19.0;	48 :	10.0;	49 :	20.0;	50 :	12.0;


Origin  25
	26 :	8.0;	27 :	9.0;	28 :	26.0;	29 :	3.0;	30 :	1.0;
	31 :	27.0;	32 :	28.0;	33 :	2.0;	34 :	8.0;	35 :	12.0;
	36 :	31.0;	37 :	25.0;	38 :	31.0;	39 :	18.0;	40 :	23.0;
	41 :	29.0;	42 :	0.0;	43 :	23.0;	44 :	25.0;	45 :	20.0;
	46 :	25.0;	47 :	23.0;	48 :	6.0;	49 :	9.0;	50 :	1.0;
