<NUMBER OF ZONES> 50
<TOTAL OD FLOW> 10000.0
<END OF METADATA>



Origin  1
	26 :	13.0;	27 :	26.0;	28 :	13.0;	29 :	18.0;	30 :	1.0;
	31 :	9.0;	32 :	5.0;	33 :	17.0;	34 :	15.0;	35 :	5.0;
	36 :	8.0;	37 :	17.0;	38 :	26.0;	39 :	32.0;	40 :	8.0;
	41 :	26.0;	42 :	19.0;	43 :	9.0;	44 :	1.0;	45 :	0.0;
	46 :	25.0;	47 :	32.0;	48 :	8.0;	49 :	14.0;	50 :	19.0;


Origin  2
	26 :	7.0;	27 :	29.0;	28 :	27.0;	29 :	26.0;	30 :	9.0;
	31 :	21.0;	32 :	8.0;	33 :	11.0;	34 :	29.0;	35 :	25.0;
	36 :	4.0;	37 :	10.0;	38 :	4.0;	39 :	26.0;	40 :	3.0;
	41 :	17.0;	42 :	8.0;	43 :	6.0;	44 :	22.0;	45 :	5.0;
	46 :	20.0;	47 :	30.0;	48 :	2.0;	49 :	20.0;	50 :	11.0;


Origin  3
	26 :	9.0;	27 :	19.0;	28 :	14.0;	29 :	14.0;	30 :	13.0;
	31 :	19.0;	32 :	10.0;	33 :	22.0;	34 :	21.0;	35 :	13.0;
	36 :	32.0;	37 :	26.0;	38 :	28.0;	39 :	20.0;	40 :	27.0;
	41 :	21.0;	42 :	18.0;	43 :	18.0;	44 :	23.0;	45 :	18.0;
	46 :	2.0;	47 :	1.0;	48 :	2.0;	49 :	3.0;	50 :	29.0;


Origin  4
	26 :	16.0;	27 :	29.0;	28 :	7.0;	29 :	28.0;	30 :	13.0;
	31 :	22.0;	32 :	18.0;	33 :	25.0;	34 :	4.0;	35 :	29.0;
	36 :	0.0;	37 :	20.0;	38 :	10.0;	39 :	30.0;	40 :	27.0;
	41 :	3.0;	42 :	10.0;	43 :	17.0;	44 :	9.0;	45 :	24.0;
	46 :	7.0;	47 :	8.0;	48 :	29.0;	49 :	9.0;	50 :	29.0;


Origin  5
	26 :	7.0;	27 :	27.0;	28 :	28.0;	29 :	29.0;	30 :	14.0;
	31 :	31.0;	32 :	12.0;	33 :	26.0;	34 :	4.0;	35 :	26.0;
	36 :	21.0;	37 :	22.0;	38 :	16.0;	39 :	3.0;	40 :	27.0;
	41 :	1.0;	42 :	21.0;	43 :	24.0;	44 :	6.0;	45 :	10.0;
	46 :	11.0;	47 :	14.0;	48 :	21.0;	49 :	18.0;	50 :	22.0;


Origin  6
	26 :	10.0;	27 :	0.0;	28 :	20.0;	29 :	29.0;	30 :	26.0;
	31 :	22.0;	32 :	23.0;	33 :	7.0;	34 :	9.0;	35 :	9.0;
	36 :	29.0;	37 :	17.0;	38 :	6.0;	39 :	11.0;	40 :	6.0;
	41 :	26.0;	42 :	13.0;	43 :	5.0;	44 :	14.0;	45 :	21.0;
	46 :	9.0;	47 :	0.0;	48 :	18.0;	49 :	5.0;	50 :	26.0;


Origin  7
	26 :	20.0;	27 :	12.0;	28 :	28.0;	29 :	10.0;	30 :	31.0;
	31 :	26.0;	32 :	22.0;	33 :	4.0;	34 :	31.0;	35 :	30.0;
	36 :	18.0;	37 :	4.0;	38 :	31.0;	39 :	17.0;	40 :	11.0;
	41 :	13.0;	42 :	6.0;	43 :	14.0;	44 :	3.0;	45 :	26.0;
	46 :	11.0;	47 :	25.0;	48 :	11.0;	49 :	27.0;	50 :	0.0;


Origin  8
	26 :	1.0;	27 :	1.0;	28 :	5.0;	29 :	3.0;	30 :	30.0;
	31 :	4.0;	32 :	11.0;	33 :	9.0;	34 :	11.0;	35 :	10.0;
	36 :	29.0;	37 :	2.0;	38 :	8.0;	39 :	27.0;	40 :	29.0;
	41 :	18.0;	42 :	17.0;	43 :	24.0;	44 :	32.0;	45 :	2.0;
	46 :	17.0;	47 :	22.0;	48 :	21.0;	49 :	17.0;	50 :	26.0;


Origin  9
	26 :	15.0;	27 :	0.0;	28 :	19.0;	29 :	25.0;	30 :	4.0;
	31 :	30.0;	32 :	31.0;	33 :	7.0;	34 :	23.0;	35 :	30.0;
	36 :	12.0;	37 :	2.0;	38 :	13.0;	39 :	31.0;	40 :	5.0;
	41 :	26.0;	42 :	7.0;	43 :	4.0;	44 :	5.0;	45 :	12.0;
	46 :	7.0;	47 :	16.0;	48 :	18.0;	49 :	20.0;	50 :	11.0;


Origin  10
	26 :	21.0;	27 :	0.0;	28 :	17.0;	29 :	25.0;	30 :	11.0;
	31 :	29.0;	32 :	23.0;	33 :	4.0;	34 :	15.0;	35 :	20.0;
	36 :	0.0;	37 :	25.0;	38 :	14.0;	39 :	6.0;	40 :	29.0;
	41 :	26.0;	42 :	25.0;	43 :	31.0;	44 :	5.0;	45 :	10.0;
	46 :	17.0;	47 :	1.0;	48 :	20.0;	49 :	16.0;	50 :	19.0;


Origin  11
	26 :	3.0;	27 :	17.0;	28 :	18.0;	29 :	4.0;	30 :	22.0;
	31 :	7.0;	32 :	27.0;	33 :	19.0;	34 :	27.0;	35 :	4.0;
	36 :	25.0;	37 :	11.0;	38 :	24.0;	39 :	12.0;	40 :	16.0;
	41 :	21.0;	42 :	20.0;	43 :	24.0;	44 :	3.0;	45 :	24.0;
	46 :	23.0;	47 :	29.0;	48 :	17.0;	49 :	14.0;	50 :	16.0;


Origin  12
	26 :	9.0;	27 :	4.0;	28 :	32.0;	29 :	24.0;	30 :	23.0;
	31 :	6.0;	32 :	29.0;	33 :	18.0;	34 :	24.0;	35 :	24.0;
	36 :	21.0;	37 :	9.0;	38 :	29.0;	39 :	16.0;	40 :	15.0;
	41 :	15.0;	42 :	18.0;	43 :	31.0;	44 :	10.0;	45 :	1.0;
	46 :	22.0;	47 :	6.0;	48 :	29.0;	49 :	7.0;	50 :	26.0;


Origin  13
	26 :	10.0;	27 :	29.0;	28 :	6.0;	29 :	22.0;	30 :	11.0;
	31 :	13.0;	32 :	4.0;	33 :	7.0;	34 :	4.0;	35 :	5.0;
	36 :	27.0;	37 :	29.0;	38 :	24.0;	39 :	3.0;	40 :	18.0;
	41 :	8.0;	42 :	8.0;	43 :	14.0;	44 :	7.0;	45 :	5.0;
	46 :	16.0;	47 :	10.0;	48 :	24.0;	49 :	27.0;	50 :	26.0;


Origin  14
	26 :	9.0;	27 :	22.0;	28 :	1.0;	29 :	15.0;	30 :	31.0;
	31 :	6.0;	32 :	17.0;	33 :	20.0;	34 :	19.0;	35 :	22.0;
	36 :	28.0;	37 :	15.0;	38 :	14.0;	39 :	28.0;	40 :	29.0;
	41 :	31.0;	42 :	28.0;	43 :	20.0;	44 :	17.0;	45 :	7.0;
	46 :	17.0;	47 :	6.0;	48 :	22.0;	49 :	8.0;	50 :	31.0;


Origin  15
	26 :	30.0;	27 :	22.0;	28 :	7.0;	29 :	20.0;	30 :	8.0;
	31 :	8.0;	32 :	21.0;	33 :	17.0;	34 :	13.0;	35 :	15.0;
	36 :	3.0;	37 :	19.0;	38 :	12.0;	39 :	21.0;	40 :	23.0;
	41 :	4.0;	42 :	23.0;	43 :	31.0;	44 :	5.0;	45 :	14.0;
	46 :	10.0;	47 :	9.0;	48 :	5.0;	49 :	4.0;	50 :	27.0;


Origin  16
	26 :	9.0;	27 :	28.0;	28 :	6.0;	29 :	3.0;	30 :	3.0;
	31 :	17.0;	32 :	31.0;	33 :	10.0;	34 :	17.0;	35 :	12.0;
	36 :	17.0;	37 :	7.0;	38 :	30.0;	39 :	3.0;	40 :	11.0;
	41 :	30.0;	42 :	3.0;	43 :	27.0;	44 :	1.0;	45 :	19.0;
	46 :	5.0;	47 :	3.0;	48 :	27.0;	49 :	26.0;	50 :	1.0;


Origin  17
	26 :	5.0;	27 :	11.0;	28 :	23.0;	29 :	28.0;	30 :	12.0;
	31 :	25.0;	32 :	3.0;	33 :	4.0;	34 :	11.0;	35 :	15.0;
	36 :	10.0;	37 :	12.0;	38 :	31.0;	39 :	31.0;	40 :	27.0;
	41 :	21.0;	42 :	3.0;	43 :	4.0;	44 :	1.0;	45 :	1.0;
	46 :	9.0;	47 :	1.0;	48 :	30.0;	49 :	10.0;	50 :	11.0;


Origin  18
	26 :	27.0;	27 :	15.0;	28 :	15.0;	29 :	19.0;	30 :	11.0;
	31 :	10.0;	32 :	22.0;	33 :	25.0;	34 :	15.0;	35 :	29.0;
	36 :	3.0;	37 :	2.0;	38 :	13.0;	39 :	20.0;	40 :	14.0;
	41 :	2.0;	42 :	19.0;	43 :	10.0;	44 :	27.0;	45 :	2.0;
	46 :	31.0;	47 :	10.0;	48 :	16.0;	49 :	20.0;	50 :	31.0;


Origin  19
	26 :	18.0;	27 :	17.0;	28 :	7.0;	29 :	26.0;	30 :	22.0;
	31 :	24.0;	32 :	11.0;	33 :	31.0;	34 :	9.0;	35 :	4.0;
	36 :	8.0;	37 :	25.0;	38 :	21.0;	39 :	3.0;	40 :	13.0;
	41 :	22.0;	42 :	20.0;	43 :	30.0;	44 :	20.0;	45 :	20.0;
	46 :	30.0;	47 :	1.0;	48 :	5.0;	49 :	3.0;	50 :	14.0;


Origin  20
	26 :	9.0;	27 :	20.0;	28 :	29.0;	29 :	10.0;	30 :	13.0;
	31 :	12.0;	32 :	10.0;	33 :	11.0;	34 :	23.0;	35 :	10.0;
	36 :	17.0;	37 :	19.0;	38 :	11.0;	39 :	26.0;	40 :	27.0;
	41 :	6.0;	42 :	26.0;	43 :	10.0;	44 :	2.0;	45 :	10.0;
	46 :	0.0;	47 :	18.0;	48 :	26.0;	49 :	9.0;	50 :	17.0;


Origin  21
	26 :	24.0;	27 :	12.0;	28 :	11.0;	29 :	1.0;	30 :	8.0;
	31 :	17.0;	32 :	14.0;	33 :	19.0;	34 :	3.0;	35 :	30.0;
	36 :	4.0;	37 :	9.0;	38 :	7.0;	39 :	18.0;	40 :	11.0;
	41 :	3.0;	42 :	14.0;	43 :	29.0;	44 :	31.0;	45 :	26.0;
	46 :	21.0;	47 :	3.0;	48 :	31.0;	49 :	6.0;	50 :	19.0;


Origin  22
	26 :	4.0;	27 :	22.0;	28 :	15.0;	29 :	28.0;	30 :	15.0;
	31 :	7.0;	32 :	10.0;	33 :	25.0;	34 :	21.0;	35 :	8.0;
	36 :	12.0;	37 :	12.0;	38 :	32.0;	39 :	15.0;	40 :	12.0;
	41 :	2.0;	42 :	25.0;	43 :	11.0;	44 :	5.0;	45 :	2.0;
	46 :	23.0;	47 :	10.0;	48 :	29.0;	49 :	12.0;	50 :	31.0;


Origin  23
	26 :	3.0;	27 :	29.0;	28 :	24.0;	29 :	11.0;	30 :	27.0;
	31 :	16.0;	32 :	28.0;	33 :	7.0;	34 :	9.0;	35 :	21.0;
	36 :	22.0;	37 :	19.0;	38 :	27.0;	39 :	22.0;	40 :	18.0;
	41 :	6.0;	42 :	23.0;	43 :	30.0;	44 :	7.0;	45 :	5.0;
	46 :	31.0;	47 :	26.0;	48 :	12.0;	49 :	29.0;	50 :	21.0;


Origin  24
	26 :	8.0;	27 :	20.0;	28 :	19.0;	29 :	24.0;	30 :	14.0;
	31 :	5.0;	32 :	27.0;	33 :	8.0;	34 :	26.0;	35 :	12.0;
	36 :	14.0;	37 :	13.0;	38 :	12.0;	39 :	26.0;	40 :	5.0;
	41 :	11.0;	42 :	3.0;	43 :	29.0;	44 :	13.0;	45 :	24.0;
	46 :	31.0;	47 :	10.0;	48 :	29.0;	49 :	31.0;	50 :	24.0;


Origin  25
	26 :	15.0;	27 :	24.0;	28 :	17.0;	29 :	7.0;	30 :	30.0;
	31 :	21.0;	32 :	16.0;	33 :	7.0;	34 :	21.0;	35 :	20.0;
	36 :	15.0;	37 :	11.0;	38 :	16.0;	39 :	8.0;	40 :	29.0;
	41 :	28.0;	42 :	26.0;	43 :	11.0;	44 :	23.0;	45 :	10.0;
	46 :	16.0;	47 :	7.0;	48 :	24.0;	49 :	6.0;	50 :	6.0;
