<NUMBER OF ZONES> 50
<TOTAL OD FLOW> 10000.0
<END OF METADATA>



Origin  1
	26 :	-3.0;	27 :	2.0;	28 :	13.0;	29 :	24.0;	30 :	0.0;
	31 :	13.0;	32 :	28.0;	33 :	3.0;	34 :	30.0;	35 :	18.0;
	36 :	28.0;	37 :	12.0;	38 :	21.0;	39 :	5.0;	40 :	22.0;
	41 :	30.0;	42 :	31.0;	43 :	20.0;	44 :	18.0;	45 :	15.0;
	46 :	6.0;	47 :	2.0;	48 :	3.0;	49 :	12.0;	50 :	25.0;


Origin  2
	26 :	10.0;	27 :	11.0;	28 :	7.0;	29 :	16.0;	30 :	20.0;
	31 :	2.0;	32 :	16.0;	33 :	11.0;	34 :	20.0;	35 :	21.0;
	36 :	26.0;	37 :	19.0;	38 :	23.0;	39 :	24.0;	40 :	26.0;
	41 :	18.0;	42 :	17.0;	43 :	3.0;	44 :	28.0;	45 :	9.0;
	46 :	24.0;	47 :	17.0;	48 :	13.0;	49 :	28.0;	50 :	17.0;


Origin  3
	26 :	23.0;	27 :	32.0;	28 :	26.0;	29 :	30.0;	30 :	25.0;
	31 :	21.0;	32 :	19.0;	33 :	31.0;	34 :	3.0;	35 :	3.0;
	36 :	5.0;	37 :	25.0;	38 :	17.0;	39 :	23.0;	40 :	16.0;
	41 :	32.0;	42 :	31.0;	43 :	21.0;	44 :	21.0;	45 :	8.0;
	46 :	5.0;	47 :	31.0;	48 :	11.0;	49 :	12.0;	50 :	20.0;


Origin  4
	26 :	14.0;	27 :	11.0;	28 :	26.0;	29 :	10.0;	30 :	15.0;
	31 :	8.0;	32 :	5.0;	33 :	12.0;	34 :	25.0;	35 :	2.0;
	36 :	13.0;	37 :	30.0;	38 :	31.0;	39 :	5.0;	40 :	5.0;
	41 :	32.0;	42 :	7.0;	43 :	21.0;	44 :	4.0;	45 :	23.0;
	46 :	16.0;	47 :	1.0;	48 :	12.0;	49 :	14.0;	50 :	27.0;


Origin  5
	26 :	22.0;	27 :	4.0;	28 :	17.0;	29 :	9.0;	30 :	11.0;
	31 :	16.0;	32 :	2.0;	33 :	7.0;	34 :	19.0;	35 :	16.0;
	36 :	22.0;	37 :	4.0;	38 :	10.0;	39 :	5.0;	40 :	23.0;
	41 :	30.0;	42 :	10.0;	43 :	9.0;	44 :	28.0;	45 :	29.0;
	46 :	20.0;	47 :	17.0;	48 :	24.0;	49 :	14.0;	50 :	29.0;


Origin  6
	26 :	8.0;	27 :	21.0;	28 :	11.0;	29 :	3.0;	30 :	27.0;
	31 :	1.0;	32 :	19.0;	33 :	7.0;	34 :	14.0;	35 :	4.0;
	36 :	8.0;	37 :	1.0;	38 :	6.0;	39 :	28.0;	40 :	18.0;
	41 :	23.0;	42 :	14.0;	43 :	6.0;	44 :	5.0;	45 :	20.0;
	46 :	8.0;	47 :	20.0;	48 :	26.0;	49 :	16.0;	50 :	28.0;


Origin  7
	26 :	20.0;	27 :	23.0;	28 :	17.0;	29 :	5.0;	30 :	10.0;
	31 :	25.0;	32 :	27.0;	33 :	20.0;	34 :	28.0;	35 :	18.0;
	36 :	2.0;	37 :	14.0;	38 :	23.0;	39 :	6.0;	40 :	11.0;
	41 :	27.0;	42 :	18.0;	43 :	22.0;	44 :	29.0;	45 :	2.0;
	46 :	29.0;	47 :	7.0;	48 :	30.0;	49 :	13.0;	50 :	13.0;


Origin  8
	26 :	5.0;	27 :	18.0;	28 :	2.0;	29 :	2.0;	30 :	28.0;
	31 :	26.0;	32 :	27.0;	33 :	25.0;	34 :	2.0;	35 :	2.0;
	36 :	29.0;	37 :	0.0;	38 :	11.0;	39 :	1.0;	40 :	16.0;
	41 :	31.0;	42 :	11.0;	43 :	12.0;	44 :	29.0;	45 :	15.0;
	46 :	3.0;	47 :	32.0;	48 :	14.0;	49 :	15.0;	50 :	31.0;


Origin  9
	26 :	32.0;	27 :	8.0;	28 :	16.0;	29 :	9.0;	30 :	3.0;
	31 :	4.0;	32 :	18.0;	33 :	12.0;	34 :	2.0;	35 :	1.0;
	36 :	28.0;	37 :	11.0;	38 :	6.0;	39 :	9.0;	40 :	26.0;
	41 :	3.0;	42 :	29.0;	43 :	26.0;	44 :	16.0;	45 :	27.0;
	46 :	12.0;	47 :	1.0;	48 :	2.0;	49 :	2.0;	50 :	11.0;


Origin  10
	26 :	22.0;	27 :	15.0;	28 :	2.0;	29 :	7.0;	30 :	20.0;
	31 :	31.0;	32 :	1.0;	33 :	21.0;	34 :	4.0;	35 :	10.0;
	36 :	16.0;	37 :	26.0;	38 :	18.0;	39 :	1.0;	40 :	25.0;
	41 :	12.0;	42 :	3.0;	43 :	5.0;	44 :	13.0;	45 :	16.0;
	46 :	6.0;	47 :	19.0;	48 :	25.0;	49 :	29.0;	50 :	11.0;


Origin  11
	26 :	20.0;	27 :	2.0;	28 :	6.0;	29 :	27.0;	30 :	8.0;
	31 :	31.0;	32 :	13.0;	33 :	19.0;	34 :	8.0;	35 :	7.0;
	36 :	25.0;	37 :	20.0;	38 :	18.0;	39 :	1.0;	40 :	27.0;
	41 :	15.0;	42 :	27.0;	43 :	21.0;	44 :	14.0;	45 :	4.0;
	46 :	7.0;	47 :	29.0;	48 :	16.0;	49 :	32.0;	50 :	15.0;


Origin  12
	26 :	12.0;	27 :	31.0;	28 :	26.0;	29 :	25.0;	30 :	3.0;
	31 :	9.0;	32 :	32.0;	33 :	17.0;	34 :	24.0;	35 :	28.0;
	36 :	28.0;	37 :	14.0;	38 :	7.0;	39 :	30.0;	40 :	8.0;
	41 :	24.0;	42 :	30.0;	43 :	7.0;	44 :	22.0;	45 :	15.0;
	46 :	4.0;	47 :	7.0;	48 :	29.0;	49 :	1.0;	50 :	11.0;


Origin  13
	26 :	2.0;	27 :	8.0;	28 :	31.0;	29 :	30.0;	30 :	9.0;
	31 :	27.0;	32 :	31.0;	33 :	18.0;	34 :	30.0;	35 :	19.0;
	36 :	22.0;	37 :	16.0;	38 :	3.0;	39 :	28.0;	40 :	19.0;
	41 :	26.0;	42 :	13.0;	43 :	21.0;	44 :	4.0;	45 :	23.0;
	46 :	23.0;	47 :	22.0;	48 :	32.0;	49 :	10.0;	50 :	18.0;


Origin  14
	26 :	3.0;	27 :	8.0;	28 :	30.0;	29 :	16.0;	30 :	12.0;
	31 :	24.0;	32 :	11.0;	33 :	9.0;	34 :	28.0;	35 :	7.0;
	36 :	15.0;	37 :	16.0;	38 :	25.0;	39 :	31.0;	40 :	27.0;
	41 :	27.0;	42 :	14.0;	43 :	8.0;	44 :	27.0;	45 :	30.0;
	46 :	17.0;	47 :	27.0;	48 :	31.0;	49 :	24.0;	50 :	27.0;


Origin  15
	26 :	5.0;	27 :	32.0;	28 :	30.0;	29 :	20.0;	30 :	23.0;
	31 :	21.0;	32 :	21.0;	33 :	21.0;	34 :	2.0;	35 :	28.0;
	36 :	25.0;	37 :	20.0;	38 :	24.0;	39 :	1.0;	40 :	6.0;
	41 :	7.0;	42 :	24.0;	43 :	23.0;	44 :	22.0;	45 :	2.0;
	46 :	17.0;	47 :	8.0;	48 :	26.0;	49 :	26.0;	50 :	15.0;


Origin  16
	26 :	1.0;	27 :	24.0;	28 :	17.0;	29 :	19.0;	30 :	17.0;
	31 :	11.0;	32 :	17.0;	33 :	1.0;	34 :	10.0;	35 :	25.0;
	36 :	17.0;	37 :	5.0;	38 :	28.0;	39 :	15.0;	40 :	10.0;
	41 :	7.0;	42 :	11.0;	43 :	23.0;	44 :	13.0;	45 :	12.0;
	46 :	16.0;	47 :	13.0;	48 :	18.0;	49 :	6.0;	50 :	3.0;


Origin  17
	26 :	19.0;	27 :	13.0;	28 :	23.0;	29 :	19.0;	30 :	8.0;
	31 :	12.0;	32 :	2.0;	33 :	11.0;	34 :	15.0;	35 :	6.0;
	36 :	19.0;	37 :	4.0;	38 :	31.0;	39 :	10.0;	40 :	16.0;
	41 :	5.0;	42 :	23.0;	43 :	11.0;	44 :	15.0;	45 :	24.0;
	46 :	13.0;	47 :	17.0;	48 :	30.0;	49 :	11.0;	50 :	19.0;


Origin  18
	26 :	11.0;	27 :	8.0;	28 :	15.0;	29 :	8.0;	30 :	20.0;
	31 :	7.0;	32 :	25.0;	33 :	27.0;	34 :	0.0;	35 :	28.0;
	36 :	8.0;	37 :	23.0;	38 :	28.0;	39 :	1.0;	40 :	28.0;
	41 :	28.0;	42 :	26.0;	43 :	27.0;	44 :	17.0;	45 :	11.0;
	46 :	2.0;	47 :	27.0;	48 :	6.0;	49 :	4.0;	50 :	14.0;


Origin  19
	26 :	27.0;	27 :	20.0;	28 :	22.0;	29 :	12.0;	30 :	9.0;
	31 :	7.0;	32 :	29.0;	33 :	30.0;	34 :	5.0;	35 :	23.0;
	36 :	1.0;	37 :	6.0;	38 :	19.0;	39 :	19.0;	40 :	26.0;
	41 :	31.0;	42 :	27.0;	43 :	23.0;	44 :	18.0;	45 :	29.0;
	46 :	7.0;	47 :	23.0;	48 :	23.0;	49 :	1.0;	50 :	31.0;


Origin  20
	26 :	1.0;	27 :	18.0;	28 :	24.0;	29 :	23.0;	30 :	14.0;
	31 :	28.0;	32 :	8.0;	33 :	31.0;	34 :	15.0;	35 :	31.0;
	36 :	9.0;	37 :	5.0;	38 :	4.0;	39 :	29.0;	40 :	27.0;
	41 :	27.0;	42 :	17.0;	43 :	18.0;	44 :	20.0;	45 :	21.0;
	46 :	32.0;	47 :	18.0;	48 :	4.0;	49 :	16.0;	50 :	25.0;


Origin  21
	26 :	15.0;	27 :	27.0;	28 :	13.0;	29 :	5.0;	30 :	6.0;
	31 :	0.0;	32 :	23.0;	33 :	8.0;	34 :	6.0;	35 :	18.0;
	36 :	1.0;	37 :	13.0;	38 :	26.0;	39 :	26.0;	40 :	2.0;
	41 :	8.0;	42 :	20.0;	43 :	26.0;	44 :	2.0;	45 :	5.0;
	46 :	15.0;	47 :	7.0;	48 :	3.0;	49 :	23.0;	50 :	25.0;


Origin  22
	26 :	7.0;	27 :	2.0;	28 :	8.0;	29 :	17.0;	30 :	18.0;
	31 :	8.0;	32 :	9.0;	33 :	29.0;	34 :	11.0;	35 :	27.0;
	36 :	6.0;	37 :	2.0;	38 :	20.0;	39 :	7.0;	40 :	14.0;
	41 :	3.0;	42 :	12.0;	43 :	2.0;	44 :	8.0;	45 :	29.0;
	46 :	15.0;	47 :	21.0;	48 :	7.0;	49 :	11.0;	50 :	15.0;


Origin  23
	26 :	15.0;	27 :	23.0;	28 :	6.0;	29 :	20.0;	30 :	10.0;
	31 :	7.0;	32 :	16.0;	33 :	3.0;	34 :	32.0;	35 :	27.0;
	36 :	15.0;	37 :	5.0;	38 :	21.0;	39 :	2.0;	40 :	12.0;
	41 :	11.0;	42 :	22.0;	43 :	1.0;	44 :	24.0;	45 :	27.0;
	46 :	13.0;	47 :	32.0;	48 :	14.0;	49 :	7.0;	50 :	26.0;


Origin  24
	26 :	20.0;	27 :	17.0;	28 :	18.0;	29 :	9.0;	30 :	23.0;
	31 :	31.0;	32 :	10.0;	33 :	9.0;	34 :	29.0;	35 :	24.0;
	36 :	13.0;	37 :	29.0;	38 :	7.0;	39 :	30.0;	40 :	20.0;
	41 :	15.0;	42 :	2.0;	43 :	11.0;	44 :	26.0;	45 :	4.0;
	46 :	28.0;	47 :	24.0;	48 :	24.0;	49 :	1.0;	50 :	6.0;


Origin  25
	26 :	5.0;	27 :	5.0;	28 :	23.0;	29 :	11.0;	30 :	16.0;
	31 :	4.0;	32 :	7.0;	33 :	27.0;	34 :	2.0;	35 :	23.0;
	36 :	2.0;	37 :	13.0;	38 :	5.0;	39 :	23.0;	40 :	21.0;
	41 :	16.0;	42 :	31.0;	43 :	3.0;	44 :	4.0;	45 :	6.0;
	46 :	0.0;	47 :	29.0;	48 :	4.0;	49 :	13.0;	50 :	23.0;
