<NUMBER OF ZONES> 26
<TOTAL OD FLOW> 10000.0
<END OF METADATA>



Origin  1
	14 :	25.0;	15 :	53.0;	16 :	109.0;	17 :	17.0;	18 :	0.0;
	19 :	111.0;	20 :	11.0;	21 :	6.0;	22 :	36.0;	23 :	112.0;
	24 :	0.0;	25 :	74.0;	26 :	70.0;

Origin  2
	14 :	4.0;	15 :	82.0;	16 :	61.0;	17 :	82.0;	18 :	113.0;
	19 :	1.0;	20 :	15.0;	21 :	94.0;	22 :	109.0;	23 :	40.0;
	24 :	66.0;	25 :	116.0;	26 :	117.0;

Origin  3
	14 :	72.0;	15 :	51.0;	16 :	5.0;	17 :	39.0;	18 :	101.0;
	19 :	113.0;	20 :	70.0;	21 :	5.0;	22 :	20.0;	23 :	6.0;
	24 :	16.0;	25 :	110.0;	26 :	9.0;

Origin  4
	14 :	36.0;	15 :	10.0;	16 :	31.0;	17 :	107.0;	18 :	126.0;
	19 :	5.0;	20 :	49.0;	21 :	21.0;	22 :	122.0;	23 :	64.0;
	24 :	17.0;	25 :	58.0;	26 :	119.0;

Origin  5
	14 :	82.0;	15 :	24.0;	16 :	31.0;	17 :	28.0;	18 :	113.0;
	19 :	16.0;	20 :	29.0;	21 :	8.0;	22 :	90.0;	23 :	102.0;
	24 :	15.0;	25 :	108.0;	26 :	98.0;

Origin  6
	14 :	98.0;	15 :	66.0;	16 :	41.0;	17 :	79.0;	18 :	64.0;
	19 :	53.0;	20 :	78.0;	21 :	25.0;	22 :	122.0;	23 :	112.0;
	24 :	116.0;	25 :	107.0;	26 :	35.0;

Origin  7
	14 :	78.0;	15 :	4.0;	16 :	4.0;	17 :	42.0;	18 :	80.0;
	19 :	96.0;	20 :	33.0;	21 :	39.0;	22 :	8.0;	23 :	10.0;
	24 :	55.0;	25 :	35.0;	26 :	61.0;

Origin  8
	14 :	25.0;	15 :	65.0;	16 :	103.0;	17 :	81.0;	18 :	117.0;
	19 :	112.0;	20 :	10.0;	21 :	81.0;	22 :	7.0;	23 :	46.0;
	24 :	50.0;	25 :	74.0;	26 :	118.0;

Origin  9
	14 :	113.0;	15 :	120.0;	16 :	84.0;	17 :	37.0;	18 :	61.0;
	19 :	6.0;	20 :	30.0;	21 :	8.0;	22 :	88.0;	23 :	63.0;
	24 :	21.0;	25 :	47.0;	26 :	69.0;

Origin  10
	14 :	123.0;	15 :	32.0;	16 :	82.0;	17 :	113.0;	18 :	64.0;
	19 :	37.0;	20 :	37.0;	21 :	33.0;	22 :	18.0;	23 :	79.0;
	24 :	12.0;	25 :	122.0;	26 :	106.0;

Origin  11
	14 :	11.0;	15 :	43.0;	16 :	20.0;	17 :	38.0;	18 :	23.0;
	19 :	125.0;	20 :	99.0;	21 :	38.0;	22 :	97.0;	23 :	99.0;
	24 :	7.0;	25 :	73.0;	26 :	1.0;

Origin  12
	14 :	60.0;	15 :	13.0;	16 :	6.0;	17 :	93.0;	18 :	52.0;
	19 :	83.0;	20 :	125.0;	21 :	102.0;	22 :	38.0;	23 :	77.0;
	24 :	81.0;	25 :	107.0;	26 :	125.0;

Origin  13
	14 :	121.0;	15 :	63.0;	16 :	12.0;	17 :	37.0;	18 :	20.0;
	19 :	57.0;	20 :	27.0;	21 :	57.0;	22 :	67.0;	23 :	72.0;
	24 :	68.0;	25 :	39.0;	26 :	39.0;